C12H12ClN5O4S|Chlorsulfuron|mol|1|dock8
  -GOLD-   2292219383D 1   1.00000     0.00000
 
 35 36  0  0  0  0  0  0  0  0  1 V2000
   64.1392  -74.9737  -18.1129 C   0  0  0  0  0  0  0  0  0  0  0  0
   64.5090  -75.2454  -16.6774 C   0  0  0  0  0  0  0  0  0  0  0  0
   64.2768  -76.4347  -16.1507 N   0  0  0  0  0  0  0  0  0  0  0  0
   64.6022  -76.6774  -14.8841 C   0  0  0  0  0  0  0  0  0  0  0  0
   65.1608  -75.7227  -14.1494 N   0  0  0  0  0  0  0  0  0  0  0  0
   65.3925  -74.5295  -14.6820 C   0  0  0  0  0  0  0  0  0  0  0  0
   65.0700  -74.2951  -15.9497 N   0  0  0  0  0  0  0  0  0  0  0  0
   65.9611  -73.5541  -13.9364 O   0  0  0  0  0  0  0  0  0  0  0  0
   67.2785  -73.9999  -13.6081 C   0  0  0  0  0  0  0  0  0  0  0  0
   64.3581  -77.9243  -14.3319 N   0  0  0  0  0  0  0  0  0  0  0  0
   64.6521  -79.0394  -15.0294 C   0  0  0  0  0  0  0  0  0  0  0  0
   65.1313  -78.9510  -16.1432 O   0  0  0  0  0  0  0  0  0  0  0  0
   64.4147  -80.2525  -14.4923 N   0  0  0  0  0  0  0  0  0  0  0  0
   64.6571  -81.6196  -15.3950 S   0  0  0  0  0  0  0  0  0  0  0  0
   65.8184  -81.3671  -16.1739 O   0  0  0  0  0  0  0  0  0  0  0  0
   64.4888  -82.7091  -14.4984 O   0  0  0  0  0  0  0  0  0  0  0  0
   63.3261  -81.7351  -16.5438 C   0  0  0  0  0  0  0  0  0  0  0  0
   63.5786  -81.6846  -17.9015 C   0  0  0  0  0  0  0  0  0  0  0  0
   62.5343  -81.7751  -18.8030 C   0  0  0  0  0  0  0  0  0  0  0  0
   61.2371  -81.9159  -18.3470 C   0  0  0  0  0  0  0  0  0  0  0  0
   60.9831  -81.9661  -16.9891 C   0  0  0  0  0  0  0  0  0  0  0  0
   62.0283  -81.8821  -16.0867 C   0  0  0  0  0  0  0  0  0  0  0  0
   61.7102  -81.9457  -14.3813 Cl  0  0  0  0  0  0  0  0  0  0  0  0
   63.1187  -74.5937  -18.1595 H   0  0  0  0  0  0  0  0  0  0  0  0
   64.8220  -74.2334  -18.5301 H   0  0  0  0  0  0  0  0  0  0  0  0
   64.2095  -75.8974  -18.6873 H   0  0  0  0  0  0  0  0  0  0  0  0
   67.7785  -73.2425  -13.0044 H   0  0  0  0  0  0  0  0  0  0  0  0
   67.2171  -74.9312  -13.0451 H   0  0  0  0  0  0  0  0  0  0  0  0
   67.8447  -74.1661  -14.5246 H   0  0  0  0  0  0  0  0  0  0  0  0
   63.9757  -77.9948  -13.4432 H   0  0  0  0  0  0  0  0  0  0  0  0
   64.1019  -80.3248  -13.5770 H   0  0  0  0  0  0  0  0  0  0  0  0
   64.5919  -81.5739  -18.2584 H   0  0  0  0  0  0  0  0  0  0  0  0
   62.7321  -81.7356  -19.8640 H   0  0  0  0  0  0  0  0  0  0  0  0
   60.4217  -81.9863  -19.0517 H   0  0  0  0  0  0  0  0  0  0  0  0
   59.9695  -82.0753  -16.6329 H   0  0  0  0  0  0  0  0  0  0  0  0
  1  2  1  0  0  0  0
  2  3  2  0  0  0  0
  3  4  1  0  0  0  0
  4  5  2  0  0  0  0
  5  6  1  0  0  0  0
  6  7  2  0  0  0  0
  2  7  1  0  0  0  0
  6  8  1  0  0  0  0
  8  9  1  0  0  0  0
  4 10  1  0  0  0  0
 10 11  1  0  0  0  0
 11 12  2  0  0  0  0
 11 13  1  0  0  0  0
 13 14  1  0  0  0  0
 14 15  2  0  0  0  0
 14 16  2  0  0  0  0
 14 17  1  0  0  0  0
 17 18  2  0  0  0  0
 18 19  1  0  0  0  0
 19 20  2  0  0  0  0
 20 21  1  0  0  0  0
 21 22  2  0  0  0  0
 17 22  1  0  0  0  0
 22 23  1  0  0  0  0
  1 24  1  0  0  0  0
  1 25  1  0  0  0  0
  1 26  1  0  0  0  0
  9 27  1  0  0  0  0
  9 28  1  0  0  0  0
  9 29  1  0  0  0  0
 10 30  1  0  0  0  0
 13 31  1  0  0  0  0
 18 32  1  0  0  0  0
 19 33  1  0  0  0  0
 20 34  1  0  0  0  0
 21 35  1  0  0  0  0
M  END
> <Gold.Version>
2021.2.0

> <Gold.Id.Protein>
5K6Q|5K6Q_protein|mol2

> <Gold.PLP.Fitness>
24.0407

> <Gold.PLP.PLP>
-16.8502

> <Gold.PLP.part.hbond>
-7.0772

> <Gold.PLP.part.metal>
0.0000

> <Gold.PLP.part.buried>
-2.0643

> <Gold.PLP.part.nonpolar>
-10.6709

> <Gold.PLP.part.repulsive>
0.8831

> <Gold.PLP.ligand.clash>
0.0000

> <Gold.PLP.ligand.torsion>
1.9177

> <Gold.PLP.Chemscore.Hbond>
2.5841

> <Gold.PLP.Chemscore.CHOScore>
0.0000

> <Gold.PLP.Chemscore.Metal>
0.0000

> <Gold.Chemscore.Hbonds>
donor molecule, donor type, donor heavy atom, donor atom, acceptor molecule, acceptor atom, score
      L1  H    10    30       P1  2232  0.54
      L1  H    13    31       P1  2232  0.99
      P1  H  4724  9546       L1    15  0.30
      P1  H  4726  9604       L1    16  0.75

> <Gold.PLP.Chemscore.Internal.Correction>
3.2734

> <Gold.Protein.RotatedTorsions>
[ 6459 1704 1703 1701 ] final  106.11 input   60.01 | X-H torsion
[ 6656 1882 1881 1878 ] final   38.97 input   60.00 | X-H torsion
[ 7002 2256 2255 2252 ] final -155.94 input   60.00 | X-H torsion
[ 6986 2270 2269 2268 ] final   28.62 input   59.99 | X-H torsion
[ 9089 4362 4361 4358 ] final   46.75 input   60.01 | X-H torsion
[ 9191 4472 4471 4469 ] final -142.31 input   60.00 | X-H torsion
[ 9201 4474 4473 4471 ] final  -77.95 input   60.00 | X-H torsion
[ 9219 4506 4505 4504 ] final   12.11 input   60.00 | X-H torsion
[ 9220 4508 4507 4505 ] final  110.04 input   60.00 | X-H torsion
[ 9214 4510 4509 4507 ] final  144.54 input   60.00 | X-H torsion

> <Gold.Protein.ActiveResidues>
 TYR305  THR331  LEU332  MET333  LEU349  GLY350  MET351  HIS352  GLY353  ASN358 
 VAL372  ARG373  PHE374  ASP375  ASP376  ARG377  VAL378  THR379  GLY380  LYS381 
 LEU382  PHE385  ASN404  GLY508  GLY509  TRP574  ILE651  PRO652  SER653  GLY654 
 GLY655  FAD702  HOH839  HOH865  HOH881  HOH913  HOH945  HOH958  HOH960  HOH966 
 HOH968 

> <Gold.Protein.RotatedAtoms>
   60.7031  -74.4179   -3.0337 H   0  0  0  0  0  0  0  0  0  0  0  0  # atno 6459 bound_to 1704
   62.9313  -67.0069   -5.0875 H   0  0  0  0  0  0  0  0  0  0  0  0  # atno 6656 bound_to 1882
   63.3712  -90.4529   -2.1804 H   0  0  0  0  0  0  0  0  0  0  0  0  # atno 6986 bound_to 2270
   62.8736  -89.5217   -0.9026 H   0  0  0  0  0  0  0  0  0  0  0  0  # atno 6987 bound_to 2270
   61.7531  -90.2344   -1.8946 H   0  0  0  0  0  0  0  0  0  0  0  0  # atno 6988 bound_to 2270
   60.3875  -79.9609   -5.7065 H   0  0  0  0  0  0  0  0  0  0  0  0  # atno 7002 bound_to 2256
   70.0741  -81.1468  -11.4854 H   0  0  0  0  0  0  0  0  0  0  0  0  # atno 9089 bound_to 4362
   52.9216  -69.9939   -8.6266 H   0  0  0  0  0  0  0  0  0  0  0  0  # atno 9191 bound_to 4472
   51.2633  -67.7350   -9.3383 H   0  0  0  0  0  0  0  0  0  0  0  0  # atno 9201 bound_to 4474
   63.3593  -71.3984   -6.9776 H   0  0  0  0  0  0  0  0  0  0  0  0  # atno 9214 bound_to 4510
   65.2580  -72.2549  -11.8862 H   0  0  0  0  0  0  0  0  0  0  0  0  # atno 9219 bound_to 4506
   62.5074  -69.8603  -11.6485 H   0  0  0  0  0  0  0  0  0  0  0  0  # atno 9220 bound_to 4508
   60.8994  -72.8947   -3.5713 LP  0  0  0  0  0  0  0  0  0  0  0  0  # atno 9615 bound_to 1704
   59.4253  -73.5958   -3.6164 LP  0  0  0  0  0  0  0  0  0  0  0  0  # atno 9616 bound_to 1704
   61.7601  -67.3552   -4.0128 LP  0  0  0  0  0  0  0  0  0  0  0  0  # atno 9619 bound_to 1882
   61.7131  -67.9985   -5.5130 LP  0  0  0  0  0  0  0  0  0  0  0  0  # atno 9620 bound_to 1882
   61.5195  -81.0968   -5.4304 LP  0  0  0  0  0  0  0  0  0  0  0  0  # atno 9664 bound_to 2256
   61.9572  -79.6160   -5.9617 LP  0  0  0  0  0  0  0  0  0  0  0  0  # atno 9665 bound_to 2256
   68.4749  -80.9170  -11.6798 LP  0  0  0  0  0  0  0  0  0  0  0  0  # atno 9690 bound_to 4362
   69.3752  -81.4964  -12.9128 LP  0  0  0  0  0  0  0  0  0  0  0  0  # atno 9691 bound_to 4362
   52.2395  -69.3305   -7.3065 LP  0  0  0  0  0  0  0  0  0  0  0  0  # atno 9698 bound_to 4472
   53.7337  -69.9832   -7.2165 LP  0  0  0  0  0  0  0  0  0  0  0  0  # atno 9699 bound_to 4472
   50.6611  -67.0226   -8.0050 LP  0  0  0  0  0  0  0  0  0  0  0  0  # atno 9700 bound_to 4474
   51.2351  -68.5496   -7.9298 LP  0  0  0  0  0  0  0  0  0  0  0  0  # atno 9701 bound_to 4474
   63.6474  -72.0838  -12.0435 LP  0  0  0  0  0  0  0  0  0  0  0  0  # atno 9709 bound_to 4506
   64.2624  -73.3968  -11.2922 LP  0  0  0  0  0  0  0  0  0  0  0  0  # atno 9710 bound_to 4506
   64.0390  -69.6638  -11.1353 LP  0  0  0  0  0  0  0  0  0  0  0  0  # atno 9711 bound_to 4508
   62.8026  -69.0073  -10.2945 LP  0  0  0  0  0  0  0  0  0  0  0  0  # atno 9712 bound_to 4508
   63.6333  -72.3099   -8.2975 LP  0  0  0  0  0  0  0  0  0  0  0  0  # atno 9713 bound_to 4510
   62.1277  -72.2019   -7.6746 LP  0  0  0  0  0  0  0  0  0  0  0  0  # atno 9714 bound_to 4510

$$$$
