C12H12ClN5O4S|Chlorsulfuron|mol|1|dock18
  -GOLD-   2292219383D 1   1.00000     0.00000
 
 35 36  0  0  0  0  0  0  0  0  1 V2000
   66.4122  -73.4263  -14.3988 C   0  0  0  0  0  0  0  0  0  0  0  0
   65.1405  -74.2139  -14.2152 C   0  0  0  0  0  0  0  0  0  0  0  0
   65.1812  -75.5343  -14.1868 N   0  0  0  0  0  0  0  0  0  0  0  0
   64.0604  -76.2320  -14.0250 C   0  0  0  0  0  0  0  0  0  0  0  0
   62.9003  -75.5997  -13.8919 N   0  0  0  0  0  0  0  0  0  0  0  0
   62.8635  -74.2736  -13.9209 C   0  0  0  0  0  0  0  0  0  0  0  0
   63.9875  -73.5821  -14.0776 N   0  0  0  0  0  0  0  0  0  0  0  0
   61.6832  -73.6258  -13.7862 O   0  0  0  0  0  0  0  0  0  0  0  0
   60.8130  -74.1384  -14.7972 C   0  0  0  0  0  0  0  0  0  0  0  0
   64.1032  -77.6163  -13.9957 N   0  0  0  0  0  0  0  0  0  0  0  0
   64.4566  -78.3031  -15.1002 C   0  0  0  0  0  0  0  0  0  0  0  0
   64.7377  -77.7078  -16.1221 O   0  0  0  0  0  0  0  0  0  0  0  0
   64.4983  -79.6500  -15.0718 N   0  0  0  0  0  0  0  0  0  0  0  0
   64.8091  -80.4982  -16.4597 S   0  0  0  0  0  0  0  0  0  0  0  0
   64.2330  -79.7388  -17.5135 O   0  0  0  0  0  0  0  0  0  0  0  0
   66.1732  -80.8877  -16.3768 O   0  0  0  0  0  0  0  0  0  0  0  0
   63.8791  -81.9928  -16.3830 C   0  0  0  0  0  0  0  0  0  0  0  0
   64.3511  -83.1332  -17.0046 C   0  0  0  0  0  0  0  0  0  0  0  0
   63.6215  -84.3060  -16.9446 C   0  0  0  0  0  0  0  0  0  0  0  0
   62.4193  -84.3386  -16.2633 C   0  0  0  0  0  0  0  0  0  0  0  0
   61.9459  -83.1985  -15.6414 C   0  0  0  0  0  0  0  0  0  0  0  0
   62.6786  -82.0264  -15.6956 C   0  0  0  0  0  0  0  0  0  0  0  0
   62.0849  -80.5942  -14.9144 Cl  0  0  0  0  0  0  0  0  0  0  0  0
   66.5878  -73.2624  -15.4619 H   0  0  0  0  0  0  0  0  0  0  0  0
   66.3203  -72.4650  -13.8932 H   0  0  0  0  0  0  0  0  0  0  0  0
   67.2482  -73.9819  -13.9739 H   0  0  0  0  0  0  0  0  0  0  0  0
   59.8443  -73.6436  -14.7278 H   0  0  0  0  0  0  0  0  0  0  0  0
   61.2471  -73.9513  -15.7793 H   0  0  0  0  0  0  0  0  0  0  0  0
   60.6839  -75.2115  -14.6556 H   0  0  0  0  0  0  0  0  0  0  0  0
   63.8789  -78.0914  -13.1802 H   0  0  0  0  0  0  0  0  0  0  0  0
   64.3463  -80.1223  -14.2384 H   0  0  0  0  0  0  0  0  0  0  0  0
   65.2901  -83.1081  -17.5378 H   0  0  0  0  0  0  0  0  0  0  0  0
   63.9908  -85.1970  -17.4306 H   0  0  0  0  0  0  0  0  0  0  0  0
   61.8497  -85.2550  -16.2170 H   0  0  0  0  0  0  0  0  0  0  0  0
   61.0062  -83.2238  -15.1097 H   0  0  0  0  0  0  0  0  0  0  0  0
  1  2  1  0  0  0  0
  2  3  2  0  0  0  0
  3  4  1  0  0  0  0
  4  5  2  0  0  0  0
  5  6  1  0  0  0  0
  6  7  2  0  0  0  0
  2  7  1  0  0  0  0
  6  8  1  0  0  0  0
  8  9  1  0  0  0  0
  4 10  1  0  0  0  0
 10 11  1  0  0  0  0
 11 12  2  0  0  0  0
 11 13  1  0  0  0  0
 13 14  1  0  0  0  0
 14 15  2  0  0  0  0
 14 16  2  0  0  0  0
 14 17  1  0  0  0  0
 17 18  2  0  0  0  0
 18 19  1  0  0  0  0
 19 20  2  0  0  0  0
 20 21  1  0  0  0  0
 21 22  2  0  0  0  0
 17 22  1  0  0  0  0
 22 23  1  0  0  0  0
  1 24  1  0  0  0  0
  1 25  1  0  0  0  0
  1 26  1  0  0  0  0
  9 27  1  0  0  0  0
  9 28  1  0  0  0  0
  9 29  1  0  0  0  0
 10 30  1  0  0  0  0
 13 31  1  0  0  0  0
 18 32  1  0  0  0  0
 19 33  1  0  0  0  0
 20 34  1  0  0  0  0
 21 35  1  0  0  0  0
M  END
> <Gold.Version>
2021.2.0

> <Gold.Id.Protein>
5K6Q|5K6Q_protein|mol2

> <Gold.PLP.Fitness>
26.6460

> <Gold.PLP.PLP>
-20.7750

> <Gold.PLP.part.hbond>
-7.0837

> <Gold.PLP.part.metal>
0.0000

> <Gold.PLP.part.buried>
-5.1847

> <Gold.PLP.part.nonpolar>
-15.3297

> <Gold.PLP.part.repulsive>
5.8215

> <Gold.PLP.ligand.clash>
0.0000

> <Gold.PLP.ligand.torsion>
2.4418

> <Gold.PLP.Chemscore.Hbond>
2.4937

> <Gold.PLP.Chemscore.CHOScore>
0.0000

> <Gold.PLP.Chemscore.Metal>
0.0000

> <Gold.Chemscore.Hbonds>
donor molecule, donor type, donor heavy atom, donor atom, acceptor molecule, acceptor atom, score
      L1  H    10    30       P1  2232  0.75
      L1  H    13    31       P1  2232  0.11
      P1  H  2205  6946       L1     8  0.63
      P1  H  4724  9546       L1    16  1.00

> <Gold.PLP.Chemscore.Internal.Correction>
3.2734

> <Gold.Protein.RotatedTorsions>
[ 6459 1704 1703 1701 ] final -174.78 input   60.01 | X-H torsion
[ 6656 1882 1881 1878 ] final  -26.87 input   60.00 | X-H torsion
[ 7002 2256 2255 2252 ] final  172.34 input   60.00 | X-H torsion
[ 6986 2270 2269 2268 ] final  -52.83 input   59.99 | X-H torsion
[ 9089 4362 4361 4358 ] final  -99.07 input   60.01 | X-H torsion
[ 9191 4472 4471 4469 ] final  -32.07 input   60.00 | X-H torsion
[ 9201 4474 4473 4471 ] final  -98.39 input   60.00 | X-H torsion
[ 9219 4506 4505 4504 ] final -115.56 input   60.00 | X-H torsion
[ 9220 4508 4507 4505 ] final   27.49 input   60.00 | X-H torsion
[ 9214 4510 4509 4507 ] final   78.47 input   60.00 | X-H torsion

> <Gold.Protein.ActiveResidues>
 TYR305  THR331  LEU332  MET333  LEU349  GLY350  MET351  HIS352  GLY353  ASN358 
 VAL372  ARG373  PHE374  ASP375  ASP376  ARG377  VAL378  THR379  GLY380  LYS381 
 LEU382  PHE385  ASN404  GLY508  GLY509  TRP574  ILE651  PRO652  SER653  GLY654 
 GLY655  FAD702  HOH839  HOH865  HOH881  HOH913  HOH945  HOH958  HOH960  HOH966 
 HOH968 

> <Gold.Protein.RotatedAtoms>
   59.5813  -74.1797   -3.3601 H   0  0  0  0  0  0  0  0  0  0  0  0  # atno 6459 bound_to 1704
   62.4870  -66.9343   -4.1748 H   0  0  0  0  0  0  0  0  0  0  0  0  # atno 6656 bound_to 1882
   62.1311  -90.5335   -2.3029 H   0  0  0  0  0  0  0  0  0  0  0  0  # atno 6986 bound_to 2270
   63.6206  -90.1129   -1.7098 H   0  0  0  0  0  0  0  0  0  0  0  0  # atno 6987 bound_to 2270
   62.2462  -89.5623   -0.9646 H   0  0  0  0  0  0  0  0  0  0  0  0  # atno 6988 bound_to 2270
   60.3898  -80.4465   -5.5451 H   0  0  0  0  0  0  0  0  0  0  0  0  # atno 7002 bound_to 2256
   68.3871  -81.0357  -12.0728 H   0  0  0  0  0  0  0  0  0  0  0  0  # atno 9089 bound_to 4362
   53.7843  -70.0414   -7.3567 H   0  0  0  0  0  0  0  0  0  0  0  0  # atno 9191 bound_to 4472
   51.1352  -67.4313   -9.2959 H   0  0  0  0  0  0  0  0  0  0  0  0  # atno 9201 bound_to 4474
   63.9588  -71.7932   -7.7032 H   0  0  0  0  0  0  0  0  0  0  0  0  # atno 9214 bound_to 4510
   63.5824  -72.1780  -11.9909 H   0  0  0  0  0  0  0  0  0  0  0  0  # atno 9219 bound_to 4506
   63.7389  -69.9309  -11.5853 H   0  0  0  0  0  0  0  0  0  0  0  0  # atno 9220 bound_to 4508
   61.1748  -73.9674   -3.1074 LP  0  0  0  0  0  0  0  0  0  0  0  0  # atno 9615 bound_to 1704
   60.2797  -72.7630   -3.7517 LP  0  0  0  0  0  0  0  0  0  0  0  0  # atno 9616 bound_to 1704
   61.3384  -67.9373   -4.7432 LP  0  0  0  0  0  0  0  0  0  0  0  0  # atno 9619 bound_to 1882
   62.5823  -67.4894   -5.7016 LP  0  0  0  0  0  0  0  0  0  0  0  0  # atno 9620 bound_to 1882
   61.9631  -80.8621   -5.5475 LP  0  0  0  0  0  0  0  0  0  0  0  0  # atno 9664 bound_to 2256
   61.5113  -79.3617   -6.0072 LP  0  0  0  0  0  0  0  0  0  0  0  0  # atno 9665 bound_to 2256
   69.7722  -81.5226  -12.7746 LP  0  0  0  0  0  0  0  0  0  0  0  0  # atno 9690 bound_to 4362
   69.7767  -81.0027  -11.2266 LP  0  0  0  0  0  0  0  0  0  0  0  0  # atno 9691 bound_to 4362
   52.7747  -69.9303   -8.6280 LP  0  0  0  0  0  0  0  0  0  0  0  0  # atno 9698 bound_to 4472
   52.3296  -69.3355   -7.1739 LP  0  0  0  0  0  0  0  0  0  0  0  0  # atno 9699 bound_to 4472
   50.6802  -67.2338   -7.7461 LP  0  0  0  0  0  0  0  0  0  0  0  0  # atno 9700 bound_to 4474
   51.3450  -68.6442   -8.2315 LP  0  0  0  0  0  0  0  0  0  0  0  0  # atno 9701 bound_to 4474
   64.3881  -73.4026  -11.2843 LP  0  0  0  0  0  0  0  0  0  0  0  0  # atno 9709 bound_to 4506
   65.2089  -72.1555  -11.9458 LP  0  0  0  0  0  0  0  0  0  0  0  0  # atno 9710 bound_to 4506
   63.4062  -69.0419  -10.2635 LP  0  0  0  0  0  0  0  0  0  0  0  0  # atno 9711 bound_to 4508
   62.1953  -69.5580  -11.2299 LP  0  0  0  0  0  0  0  0  0  0  0  0  # atno 9712 bound_to 4508
   62.6300  -72.5327   -8.2824 LP  0  0  0  0  0  0  0  0  0  0  0  0  # atno 9713 bound_to 4510
   62.5272  -71.5816   -6.9590 LP  0  0  0  0  0  0  0  0  0  0  0  0  # atno 9714 bound_to 4510

$$$$
