C12H12ClN5O4S|Chlorsulfuron|mol|1|dock24
  -GOLD-   2292219383D 1   1.00000     0.00000
 
 35 36  0  0  0  0  0  0  0  0  1 V2000
   64.7670  -77.0012  -18.6579 C   0  0  0  0  0  0  0  0  0  0  0  0
   65.0457  -76.6530  -17.2183 C   0  0  0  0  0  0  0  0  0  0  0  0
   64.0422  -76.4654  -16.3794 N   0  0  0  0  0  0  0  0  0  0  0  0
   64.2853  -76.1581  -15.1083 C   0  0  0  0  0  0  0  0  0  0  0  0
   65.5378  -76.0400  -14.6835 N   0  0  0  0  0  0  0  0  0  0  0  0
   66.5428  -76.2292  -15.5291 C   0  0  0  0  0  0  0  0  0  0  0  0
   66.2935  -76.5414  -16.7965 N   0  0  0  0  0  0  0  0  0  0  0  0
   67.8204  -76.1092  -15.0999 O   0  0  0  0  0  0  0  0  0  0  0  0
   68.0075  -74.7397  -14.7375 C   0  0  0  0  0  0  0  0  0  0  0  0
   63.2330  -75.9610  -14.2291 N   0  0  0  0  0  0  0  0  0  0  0  0
   62.0617  -76.5977  -14.4263 C   0  0  0  0  0  0  0  0  0  0  0  0
   61.9285  -77.3450  -15.3759 O   0  0  0  0  0  0  0  0  0  0  0  0
   61.0379  -76.4059  -13.5710 N   0  0  0  0  0  0  0  0  0  0  0  0
   59.5609  -77.0875  -13.8812 S   0  0  0  0  0  0  0  0  0  0  0  0
   58.6500  -76.4567  -12.9916 O   0  0  0  0  0  0  0  0  0  0  0  0
   59.4398  -77.1188  -15.2968 O   0  0  0  0  0  0  0  0  0  0  0  0
   59.6402  -78.7719  -13.3703 C   0  0  0  0  0  0  0  0  0  0  0  0
   60.0400  -79.7471  -14.2640 C   0  0  0  0  0  0  0  0  0  0  0  0
   60.1022  -81.0689  -13.8633 C   0  0  0  0  0  0  0  0  0  0  0  0
   59.7641  -81.4158  -12.5688 C   0  0  0  0  0  0  0  0  0  0  0  0
   59.3636  -80.4413  -11.6739 C   0  0  0  0  0  0  0  0  0  0  0  0
   59.3075  -79.1177  -12.0725 C   0  0  0  0  0  0  0  0  0  0  0  0
   58.8051  -77.8932  -10.9491 Cl  0  0  0  0  0  0  0  0  0  0  0  0
   64.6867  -76.0858  -19.2442 H   0  0  0  0  0  0  0  0  0  0  0  0
   65.5810  -77.6122  -19.0480 H   0  0  0  0  0  0  0  0  0  0  0  0
   63.8318  -77.5573  -18.7228 H   0  0  0  0  0  0  0  0  0  0  0  0
   69.0281  -74.5937  -14.3835 H   0  0  0  0  0  0  0  0  0  0  0  0
   67.8303  -74.1063  -15.6067 H   0  0  0  0  0  0  0  0  0  0  0  0
   67.3069  -74.4744  -13.9457 H   0  0  0  0  0  0  0  0  0  0  0  0
   63.3393  -75.3647  -13.4714 H   0  0  0  0  0  0  0  0  0  0  0  0
   61.1664  -75.8688  -12.7736 H   0  0  0  0  0  0  0  0  0  0  0  0
   60.3036  -79.4768  -15.2759 H   0  0  0  0  0  0  0  0  0  0  0  0
   60.4147  -81.8307  -14.5621 H   0  0  0  0  0  0  0  0  0  0  0  0
   59.8126  -82.4485  -12.2564 H   0  0  0  0  0  0  0  0  0  0  0  0
   59.0987  -80.7125  -10.6627 H   0  0  0  0  0  0  0  0  0  0  0  0
  1  2  1  0  0  0  0
  2  3  2  0  0  0  0
  3  4  1  0  0  0  0
  4  5  2  0  0  0  0
  5  6  1  0  0  0  0
  6  7  2  0  0  0  0
  2  7  1  0  0  0  0
  6  8  1  0  0  0  0
  8  9  1  0  0  0  0
  4 10  1  0  0  0  0
 10 11  1  0  0  0  0
 11 12  2  0  0  0  0
 11 13  1  0  0  0  0
 13 14  1  0  0  0  0
 14 15  2  0  0  0  0
 14 16  2  0  0  0  0
 14 17  1  0  0  0  0
 17 18  2  0  0  0  0
 18 19  1  0  0  0  0
 19 20  2  0  0  0  0
 20 21  1  0  0  0  0
 21 22  2  0  0  0  0
 17 22  1  0  0  0  0
 22 23  1  0  0  0  0
  1 24  1  0  0  0  0
  1 25  1  0  0  0  0
  1 26  1  0  0  0  0
  9 27  1  0  0  0  0
  9 28  1  0  0  0  0
  9 29  1  0  0  0  0
 10 30  1  0  0  0  0
 13 31  1  0  0  0  0
 18 32  1  0  0  0  0
 19 33  1  0  0  0  0
 20 34  1  0  0  0  0
 21 35  1  0  0  0  0
M  END
> <Gold.Version>
2021.2.0

> <Gold.Id.Protein>
5K6Q|5K6Q_protein|mol2

> <Gold.PLP.Fitness>
28.9137

> <Gold.PLP.PLP>
-24.9462

> <Gold.PLP.part.hbond>
-4.1395

> <Gold.PLP.part.metal>
0.0000

> <Gold.PLP.part.buried>
-5.6619

> <Gold.PLP.part.nonpolar>
-16.2467

> <Gold.PLP.part.repulsive>
0.2866

> <Gold.PLP.ligand.clash>
0.0096

> <Gold.PLP.ligand.torsion>
1.6632

> <Gold.PLP.Chemscore.Hbond>
1.3448

> <Gold.PLP.Chemscore.CHOScore>
0.0000

> <Gold.PLP.Chemscore.Metal>
0.0000

> <Gold.Chemscore.Hbonds>
donor molecule, donor type, donor heavy atom, donor atom, acceptor molecule, acceptor atom, score
      L1  H    13    31       P1  2223  1.00
      P1  H  2243  6969       L1     8  0.17
      P1  H  4718  9584       L1     7  0.17

> <Gold.PLP.Chemscore.Internal.Correction>
3.2693

> <Gold.Protein.RotatedTorsions>
[ 6459 1704 1703 1701 ] final   64.76 input   60.01 | X-H torsion
[ 6656 1882 1881 1878 ] final -168.61 input   60.00 | X-H torsion
[ 7002 2256 2255 2252 ] final   78.46 input   60.00 | X-H torsion
[ 6986 2270 2269 2268 ] final  -46.71 input   59.99 | X-H torsion
[ 9089 4362 4361 4358 ] final   -4.07 input   60.01 | X-H torsion
[ 9191 4472 4471 4469 ] final -148.49 input   60.00 | X-H torsion
[ 9201 4474 4473 4471 ] final  -40.63 input   60.00 | X-H torsion
[ 9219 4506 4505 4504 ] final   71.80 input   60.00 | X-H torsion
[ 9220 4508 4507 4505 ] final  -51.36 input   60.00 | X-H torsion
[ 9214 4510 4509 4507 ] final  164.44 input   60.00 | X-H torsion

> <Gold.Protein.ActiveResidues>
 TYR305  THR331  LEU332  MET333  LEU349  GLY350  MET351  HIS352  GLY353  ASN358 
 VAL372  ARG373  PHE374  ASP375  ASP376  ARG377  VAL378  THR379  GLY380  LYS381 
 LEU382  PHE385  ASN404  GLY508  GLY509  TRP574  ILE651  PRO652  SER653  GLY654 
 GLY655  FAD702  HOH839  HOH865  HOH881  HOH913  HOH945  HOH958  HOH960  HOH966 
 HOH968 

> <Gold.Protein.RotatedAtoms>
   61.1717  -73.9577   -3.1092 H   0  0  0  0  0  0  0  0  0  0  0  0  # atno 6459 bound_to 1704
   61.4215  -68.0206   -5.0775 H   0  0  0  0  0  0  0  0  0  0  0  0  # atno 6656 bound_to 1882
   62.2188  -90.5648   -2.3452 H   0  0  0  0  0  0  0  0  0  0  0  0  # atno 6986 bound_to 2270
   63.6223  -90.0529   -1.6270 H   0  0  0  0  0  0  0  0  0  0  0  0  # atno 6987 bound_to 2270
   62.1569  -89.5911   -1.0051 H   0  0  0  0  0  0  0  0  0  0  0  0  # atno 6988 bound_to 2270
   61.6051  -81.0666   -5.4455 H   0  0  0  0  0  0  0  0  0  0  0  0  # atno 7002 bound_to 2256
   69.3925  -80.9045  -11.1359 H   0  0  0  0  0  0  0  0  0  0  0  0  # atno 9089 bound_to 4362
   52.8297  -69.9523   -8.6269 H   0  0  0  0  0  0  0  0  0  0  0  0  # atno 9191 bound_to 4472
   51.4202  -68.2725   -9.1255 H   0  0  0  0  0  0  0  0  0  0  0  0  # atno 9201 bound_to 4474
   63.0463  -71.4113   -6.8962 H   0  0  0  0  0  0  0  0  0  0  0  0  # atno 9214 bound_to 4510
   65.1331  -73.0643  -11.4417 H   0  0  0  0  0  0  0  0  0  0  0  0  # atno 9219 bound_to 4506
   63.9166  -69.3032  -10.5911 H   0  0  0  0  0  0  0  0  0  0  0  0  # atno 9220 bound_to 4508
   60.2723  -72.7641   -3.7528 LP  0  0  0  0  0  0  0  0  0  0  0  0  # atno 9615 bound_to 1704
   59.5805  -74.1899   -3.3589 LP  0  0  0  0  0  0  0  0  0  0  0  0  # atno 9616 bound_to 1704
   62.7965  -67.2711   -5.5202 LP  0  0  0  0  0  0  0  0  0  0  0  0  # atno 9619 bound_to 1882
   62.1971  -67.0618   -4.0157 LP  0  0  0  0  0  0  0  0  0  0  0  0  # atno 9620 bound_to 1882
   61.8899  -79.5549   -5.9761 LP  0  0  0  0  0  0  0  0  0  0  0  0  # atno 9664 bound_to 2256
   60.3606  -80.0444   -5.6788 LP  0  0  0  0  0  0  0  0  0  0  0  0  # atno 9665 bound_to 2256
   68.4670  -81.1736  -12.4470 LP  0  0  0  0  0  0  0  0  0  0  0  0  # atno 9690 bound_to 4362
   70.0694  -81.4838  -12.4976 LP  0  0  0  0  0  0  0  0  0  0  0  0  # atno 9691 bound_to 4362
   52.2943  -69.3322   -7.2209 LP  0  0  0  0  0  0  0  0  0  0  0  0  # atno 9698 bound_to 4472
   53.7715  -70.0234   -7.3018 LP  0  0  0  0  0  0  0  0  0  0  0  0  # atno 9699 bound_to 4472
   50.7510  -66.8906   -8.5866 LP  0  0  0  0  0  0  0  0  0  0  0  0  # atno 9700 bound_to 4474
   50.9873  -68.1403   -7.5625 LP  0  0  0  0  0  0  0  0  0  0  0  0  # atno 9701 bound_to 4474
   64.5152  -71.7589  -12.1916 LP  0  0  0  0  0  0  0  0  0  0  0  0  # atno 9709 bound_to 4506
   63.5204  -72.9066  -11.5917 LP  0  0  0  0  0  0  0  0  0  0  0  0  # atno 9710 bound_to 4506
   62.2943  -69.2082  -10.6759 LP  0  0  0  0  0  0  0  0  0  0  0  0  # atno 9711 bound_to 4508
   63.1282  -70.0239  -11.8187 LP  0  0  0  0  0  0  0  0  0  0  0  0  # atno 9712 bound_to 4508
   63.8406  -72.1312   -8.1205 LP  0  0  0  0  0  0  0  0  0  0  0  0  # atno 9713 bound_to 4510
   62.2356  -72.3676   -7.9336 LP  0  0  0  0  0  0  0  0  0  0  0  0  # atno 9714 bound_to 4510

$$$$
