C12H12ClN5O4S|Chlorsulfuron|mol|1|dock26
  -GOLD-   2292219383D 1   1.00000     0.00000
 
 35 36  0  0  0  0  0  0  0  0  1 V2000
   66.7865  -73.4172  -13.9262 C   0  0  0  0  0  0  0  0  0  0  0  0
   66.1355  -74.5970  -14.6010 C   0  0  0  0  0  0  0  0  0  0  0  0
   65.1035  -75.1948  -14.0324 N   0  0  0  0  0  0  0  0  0  0  0  0
   64.5270  -76.2363  -14.6258 C   0  0  0  0  0  0  0  0  0  0  0  0
   64.9900  -76.6746  -15.7906 N   0  0  0  0  0  0  0  0  0  0  0  0
   66.0267  -76.0715  -16.3585 C   0  0  0  0  0  0  0  0  0  0  0  0
   66.5948  -75.0281  -15.7632 N   0  0  0  0  0  0  0  0  0  0  0  0
   66.5016  -76.5156  -17.5451 O   0  0  0  0  0  0  0  0  0  0  0  0
   65.4169  -76.4540  -18.4734 C   0  0  0  0  0  0  0  0  0  0  0  0
   63.4452  -76.8633  -14.0291 N   0  0  0  0  0  0  0  0  0  0  0  0
   62.3884  -77.2397  -14.7761 C   0  0  0  0  0  0  0  0  0  0  0  0
   62.3844  -77.0290  -15.9733 O   0  0  0  0  0  0  0  0  0  0  0  0
   61.3359  -77.8496  -14.1957 N   0  0  0  0  0  0  0  0  0  0  0  0
   59.9855  -78.1985  -15.0884 S   0  0  0  0  0  0  0  0  0  0  0  0
   60.4621  -78.6830  -16.3362 O   0  0  0  0  0  0  0  0  0  0  0  0
   59.1141  -78.9001  -14.2121 O   0  0  0  0  0  0  0  0  0  0  0  0
   59.1799  -76.6723  -15.4436 C   0  0  0  0  0  0  0  0  0  0  0  0
   59.7794  -75.4769  -15.0951 C   0  0  0  0  0  0  0  0  0  0  0  0
   59.1474  -74.2792  -15.3737 C   0  0  0  0  0  0  0  0  0  0  0  0
   57.9154  -74.2767  -16.0003 C   0  0  0  0  0  0  0  0  0  0  0  0
   57.3145  -75.4717  -16.3490 C   0  0  0  0  0  0  0  0  0  0  0  0
   57.9494  -76.6702  -16.0764 C   0  0  0  0  0  0  0  0  0  0  0  0
   57.1956  -78.1714  -16.5144 Cl  0  0  0  0  0  0  0  0  0  0  0  0
   67.5831  -73.7678  -13.2702 H   0  0  0  0  0  0  0  0  0  0  0  0
   67.2043  -72.7516  -14.6815 H   0  0  0  0  0  0  0  0  0  0  0  0
   66.0427  -72.8787  -13.3388 H   0  0  0  0  0  0  0  0  0  0  0  0
   65.7535  -76.8040  -19.4492 H   0  0  0  0  0  0  0  0  0  0  0  0
   64.6016  -77.0863  -18.1219 H   0  0  0  0  0  0  0  0  0  0  0  0
   65.0682  -75.4246  -18.5569 H   0  0  0  0  0  0  0  0  0  0  0  0
   63.4484  -77.0314  -13.0738 H   0  0  0  0  0  0  0  0  0  0  0  0
   61.3696  -78.0842  -13.2551 H   0  0  0  0  0  0  0  0  0  0  0  0
   60.7417  -75.4783  -14.6048 H   0  0  0  0  0  0  0  0  0  0  0  0
   59.6163  -73.3453  -15.1012 H   0  0  0  0  0  0  0  0  0  0  0  0
   57.4221  -73.3407  -16.2174 H   0  0  0  0  0  0  0  0  0  0  0  0
   56.3515  -75.4697  -16.8379 H   0  0  0  0  0  0  0  0  0  0  0  0
  1  2  1  0  0  0  0
  2  3  2  0  0  0  0
  3  4  1  0  0  0  0
  4  5  2  0  0  0  0
  5  6  1  0  0  0  0
  6  7  2  0  0  0  0
  2  7  1  0  0  0  0
  6  8  1  0  0  0  0
  8  9  1  0  0  0  0
  4 10  1  0  0  0  0
 10 11  1  0  0  0  0
 11 12  2  0  0  0  0
 11 13  1  0  0  0  0
 13 14  1  0  0  0  0
 14 15  2  0  0  0  0
 14 16  2  0  0  0  0
 14 17  1  0  0  0  0
 17 18  2  0  0  0  0
 18 19  1  0  0  0  0
 19 20  2  0  0  0  0
 20 21  1  0  0  0  0
 21 22  2  0  0  0  0
 17 22  1  0  0  0  0
 22 23  1  0  0  0  0
  1 24  1  0  0  0  0
  1 25  1  0  0  0  0
  1 26  1  0  0  0  0
  9 27  1  0  0  0  0
  9 28  1  0  0  0  0
  9 29  1  0  0  0  0
 10 30  1  0  0  0  0
 13 31  1  0  0  0  0
 18 32  1  0  0  0  0
 19 33  1  0  0  0  0
 20 34  1  0  0  0  0
 21 35  1  0  0  0  0
M  END
> <Gold.Version>
2021.2.0

> <Gold.Id.Protein>
5K6Q|5K6Q_protein|mol2

> <Gold.PLP.Fitness>
27.8311

> <Gold.PLP.PLP>
-20.8300

> <Gold.PLP.part.hbond>
-3.0000

> <Gold.PLP.part.metal>
0.0000

> <Gold.PLP.part.buried>
-5.1877

> <Gold.PLP.part.nonpolar>
-12.9764

> <Gold.PLP.part.repulsive>
0.2281

> <Gold.PLP.ligand.clash>
0.0000

> <Gold.PLP.ligand.torsion>
2.1185

> <Gold.PLP.Chemscore.Hbond>
2.6563

> <Gold.PLP.Chemscore.CHOScore>
0.0000

> <Gold.PLP.Chemscore.Metal>
0.0000

> <Gold.Chemscore.Hbonds>
donor molecule, donor type, donor heavy atom, donor atom, acceptor molecule, acceptor atom, score
      L1  H    10    30       P1  2231  0.96
      L1  H    13    31       P1  2231  0.80
      P1  H  4718  9584       L1     8  0.90

> <Gold.PLP.Chemscore.Internal.Correction>
3.2693

> <Gold.Protein.RotatedTorsions>
[ 6459 1704 1703 1701 ] final -115.10 input   60.01 | X-H torsion
[ 6656 1882 1881 1878 ] final   88.33 input   60.00 | X-H torsion
[ 7002 2256 2255 2252 ] final  176.86 input   60.00 | X-H torsion
[ 6986 2270 2269 2268 ] final  -31.94 input   59.99 | X-H torsion
[ 9089 4362 4361 4358 ] final   41.74 input   60.01 | X-H torsion
[ 9191 4472 4471 4469 ] final  -40.67 input   60.00 | X-H torsion
[ 9201 4474 4473 4471 ] final   14.66 input   60.00 | X-H torsion
[ 9219 4506 4505 4504 ] final  -97.32 input   60.00 | X-H torsion
[ 9220 4508 4507 4505 ] final    5.91 input   60.00 | X-H torsion
[ 9214 4510 4509 4507 ] final -119.41 input   60.00 | X-H torsion

> <Gold.Protein.ActiveResidues>
 TYR305  THR331  LEU332  MET333  LEU349  GLY350  MET351  HIS352  GLY353  ASN358 
 VAL372  ARG373  PHE374  ASP375  ASP376  ARG377  VAL378  THR379  GLY380  LYS381 
 LEU382  PHE385  ASN404  GLY508  GLY509  TRP574  ILE651  PRO652  SER653  GLY654 
 GLY655  FAD702  HOH839  HOH865  HOH881  HOH913  HOH945  HOH958  HOH960  HOH966 
 HOH968 

> <Gold.Protein.RotatedAtoms>
   59.5156  -73.3151   -3.7011 H   0  0  0  0  0  0  0  0  0  0  0  0  # atno 6459 bound_to 1704
   62.6341  -67.4426   -5.6648 H   0  0  0  0  0  0  0  0  0  0  0  0  # atno 6656 bound_to 1882
   62.4493  -90.6164   -2.4141 H   0  0  0  0  0  0  0  0  0  0  0  0  # atno 6986 bound_to 2270
   63.5815  -89.9101   -1.4309 H   0  0  0  0  0  0  0  0  0  0  0  0  # atno 6987 bound_to 2270
   61.9671  -89.6823   -1.1325 H   0  0  0  0  0  0  0  0  0  0  0  0  # atno 6988 bound_to 2270
   60.3722  -80.3780   -5.5663 H   0  0  0  0  0  0  0  0  0  0  0  0  # atno 7002 bound_to 2256
   70.0261  -81.1180  -11.4258 H   0  0  0  0  0  0  0  0  0  0  0  0  # atno 9089 bound_to 4362
   53.8133  -70.0894   -7.4854 H   0  0  0  0  0  0  0  0  0  0  0  0  # atno 9191 bound_to 4472
   51.3744  -68.6444   -8.3417 H   0  0  0  0  0  0  0  0  0  0  0  0  # atno 9201 bound_to 4474
   62.1485  -71.9660   -7.3649 H   0  0  0  0  0  0  0  0  0  0  0  0  # atno 9214 bound_to 4510
   63.7704  -71.9743  -12.0970 H   0  0  0  0  0  0  0  0  0  0  0  0  # atno 9219 bound_to 4506
   63.9505  -69.7928  -11.3424 H   0  0  0  0  0  0  0  0  0  0  0  0  # atno 9220 bound_to 4508
   60.4126  -74.5128   -3.0615 LP  0  0  0  0  0  0  0  0  0  0  0  0  # atno 9615 bound_to 1704
   61.1080  -73.0884   -3.4541 LP  0  0  0  0  0  0  0  0  0  0  0  0  # atno 9616 bound_to 1704
   62.4269  -66.9523   -4.1270 LP  0  0  0  0  0  0  0  0  0  0  0  0  # atno 9619 bound_to 1882
   61.3457  -67.9626   -4.8175 LP  0  0  0  0  0  0  0  0  0  0  0  0  # atno 9620 bound_to 1882
   61.9097  -80.9096   -5.5270 LP  0  0  0  0  0  0  0  0  0  0  0  0  # atno 9664 bound_to 2256
   61.5825  -79.3832   -6.0063 LP  0  0  0  0  0  0  0  0  0  0  0  0  # atno 9665 bound_to 2256
   68.4425  -80.9357  -11.7532 LP  0  0  0  0  0  0  0  0  0  0  0  0  # atno 9690 bound_to 4362
   69.4558  -81.5067  -12.8995 LP  0  0  0  0  0  0  0  0  0  0  0  0  # atno 9691 bound_to 4362
   52.6508  -69.8672   -8.6023 LP  0  0  0  0  0  0  0  0  0  0  0  0  # atno 9698 bound_to 4472
   52.4244  -69.3503   -7.0699 LP  0  0  0  0  0  0  0  0  0  0  0  0  # atno 9699 bound_to 4472
   51.0867  -67.3338   -9.2622 LP  0  0  0  0  0  0  0  0  0  0  0  0  # atno 9700 bound_to 4474
   50.6977  -67.3226   -7.6763 LP  0  0  0  0  0  0  0  0  0  0  0  0  # atno 9701 bound_to 4474
   64.0933  -73.3649  -11.3161 LP  0  0  0  0  0  0  0  0  0  0  0  0  # atno 9709 bound_to 4506
   65.3145  -72.3983  -11.8072 LP  0  0  0  0  0  0  0  0  0  0  0  0  # atno 9710 bound_to 4506
   63.0570  -68.9954  -10.2405 LP  0  0  0  0  0  0  0  0  0  0  0  0  # atno 9711 bound_to 4508
   62.3313  -69.7437  -11.4975 LP  0  0  0  0  0  0  0  0  0  0  0  0  # atno 9712 bound_to 4508
   63.6871  -71.4709   -7.1757 LP  0  0  0  0  0  0  0  0  0  0  0  0  # atno 9713 bound_to 4510
   63.2932  -72.4694   -8.4063 LP  0  0  0  0  0  0  0  0  0  0  0  0  # atno 9714 bound_to 4510

$$$$
