C12H12ClN5O4S|Chlorsulfuron|mol|1|dock11
  -GOLD-   2292219383D 1   1.00000     0.00000
 
 35 36  0  0  0  0  0  0  0  0  1 V2000
   59.2373  -78.2723  -16.5801 C   0  0  0  0  0  0  0  0  0  0  0  0
   59.9944  -77.2685  -15.7491 C   0  0  0  0  0  0  0  0  0  0  0  0
   61.2507  -77.5037  -15.4142 N   0  0  0  0  0  0  0  0  0  0  0  0
   61.9213  -76.6195  -14.6809 C   0  0  0  0  0  0  0  0  0  0  0  0
   61.3264  -75.5000  -14.2857 N   0  0  0  0  0  0  0  0  0  0  0  0
   60.0645  -75.2675  -14.6241 C   0  0  0  0  0  0  0  0  0  0  0  0
   59.4017  -76.1523  -15.3615 N   0  0  0  0  0  0  0  0  0  0  0  0
   59.4549  -74.1281  -14.2229 O   0  0  0  0  0  0  0  0  0  0  0  0
   59.1227  -73.3987  -15.4059 C   0  0  0  0  0  0  0  0  0  0  0  0
   63.2383  -76.8664  -14.3294 N   0  0  0  0  0  0  0  0  0  0  0  0
   64.2323  -76.5696  -15.1898 C   0  0  0  0  0  0  0  0  0  0  0  0
   63.9732  -76.0852  -16.2743 O   0  0  0  0  0  0  0  0  0  0  0  0
   65.5138  -76.8099  -14.8480 N   0  0  0  0  0  0  0  0  0  0  0  0
   66.7249  -76.5637  -15.9503 S   0  0  0  0  0  0  0  0  0  0  0  0
   67.8798  -77.1815  -15.3993 O   0  0  0  0  0  0  0  0  0  0  0  0
   66.1586  -76.8619  -17.2190 O   0  0  0  0  0  0  0  0  0  0  0  0
   67.0717  -74.8364  -15.9749 C   0  0  0  0  0  0  0  0  0  0  0  0
   66.0344  -73.9233  -15.9864 C   0  0  0  0  0  0  0  0  0  0  0  0
   66.3063  -72.5679  -16.0058 C   0  0  0  0  0  0  0  0  0  0  0  0
   67.6157  -72.1252  -16.0142 C   0  0  0  0  0  0  0  0  0  0  0  0
   68.6542  -73.0376  -16.0031 C   0  0  0  0  0  0  0  0  0  0  0  0
   68.3827  -74.3938  -15.9771 C   0  0  0  0  0  0  0  0  0  0  0  0
   69.6863  -75.5401  -15.9626 Cl  0  0  0  0  0  0  0  0  0  0  0  0
   58.7383  -78.9850  -15.9235 H   0  0  0  0  0  0  0  0  0  0  0  0
   58.4940  -77.7550  -17.1867 H   0  0  0  0  0  0  0  0  0  0  0  0
   59.9321  -78.8029  -17.2310 H   0  0  0  0  0  0  0  0  0  0  0  0
   58.6266  -72.4677  -15.1315 H   0  0  0  0  0  0  0  0  0  0  0  0
   60.0328  -73.1751  -15.9625 H   0  0  0  0  0  0  0  0  0  0  0  0
   58.4552  -73.9969  -16.0262 H   0  0  0  0  0  0  0  0  0  0  0  0
   63.4452  -77.2530  -13.4641 H   0  0  0  0  0  0  0  0  0  0  0  0
   65.7265  -77.1269  -13.9563 H   0  0  0  0  0  0  0  0  0  0  0  0
   65.0111  -74.2687  -15.9806 H   0  0  0  0  0  0  0  0  0  0  0  0
   65.4954  -71.8547  -16.0148 H   0  0  0  0  0  0  0  0  0  0  0  0
   67.8275  -71.0663  -16.0296 H   0  0  0  0  0  0  0  0  0  0  0  0
   69.6772  -72.6916  -16.0104 H   0  0  0  0  0  0  0  0  0  0  0  0
  1  2  1  0  0  0  0
  2  3  2  0  0  0  0
  3  4  1  0  0  0  0
  4  5  2  0  0  0  0
  5  6  1  0  0  0  0
  6  7  2  0  0  0  0
  2  7  1  0  0  0  0
  6  8  1  0  0  0  0
  8  9  1  0  0  0  0
  4 10  1  0  0  0  0
 10 11  1  0  0  0  0
 11 12  2  0  0  0  0
 11 13  1  0  0  0  0
 13 14  1  0  0  0  0
 14 15  2  0  0  0  0
 14 16  2  0  0  0  0
 14 17  1  0  0  0  0
 17 18  2  0  0  0  0
 18 19  1  0  0  0  0
 19 20  2  0  0  0  0
 20 21  1  0  0  0  0
 21 22  2  0  0  0  0
 17 22  1  0  0  0  0
 22 23  1  0  0  0  0
  1 24  1  0  0  0  0
  1 25  1  0  0  0  0
  1 26  1  0  0  0  0
  9 27  1  0  0  0  0
  9 28  1  0  0  0  0
  9 29  1  0  0  0  0
 10 30  1  0  0  0  0
 13 31  1  0  0  0  0
 18 32  1  0  0  0  0
 19 33  1  0  0  0  0
 20 34  1  0  0  0  0
 21 35  1  0  0  0  0
M  END
> <Gold.Version>
2021.2.0

> <Gold.Id.Protein>
5K6Q|5K6Q_protein|mol2

> <Gold.PLP.Fitness>
25.1571

> <Gold.PLP.PLP>
-19.5577

> <Gold.PLP.part.hbond>
-4.2943

> <Gold.PLP.part.metal>
0.0000

> <Gold.PLP.part.buried>
-2.8273

> <Gold.PLP.part.nonpolar>
-15.2700

> <Gold.PLP.part.repulsive>
0.9462

> <Gold.PLP.ligand.clash>
0.0000

> <Gold.PLP.ligand.torsion>
2.3688

> <Gold.PLP.Chemscore.Hbond>
2.3545

> <Gold.PLP.Chemscore.CHOScore>
0.0000

> <Gold.PLP.Chemscore.Metal>
0.0000

> <Gold.Chemscore.Hbonds>
donor molecule, donor type, donor heavy atom, donor atom, acceptor molecule, acceptor atom, score
      L1  H    10    30       P1  2231  0.33
      P1  H  2204  6935       L1     8  0.98
      P1  H  2243  6969       L1    15  0.70
      P1  H  4718  9584       L1    16  0.34

> <Gold.PLP.Chemscore.Internal.Correction>
3.2734

> <Gold.Protein.RotatedTorsions>
[ 6459 1704 1703 1701 ] final  143.19 input   60.01 | X-H torsion
[ 6656 1882 1881 1878 ] final  137.97 input   60.00 | X-H torsion
[ 7002 2256 2255 2252 ] final   99.01 input   60.00 | X-H torsion
[ 6986 2270 2269 2268 ] final   47.04 input   59.99 | X-H torsion
[ 9089 4362 4361 4358 ] final  -49.87 input   60.01 | X-H torsion
[ 9191 4472 4471 4469 ] final   34.85 input   60.00 | X-H torsion
[ 9201 4474 4473 4471 ] final  -71.50 input   60.00 | X-H torsion
[ 9219 4506 4505 4504 ] final -113.89 input   60.00 | X-H torsion
[ 9220 4508 4507 4505 ] final   70.86 input   60.00 | X-H torsion
[ 9214 4510 4509 4507 ] final  174.07 input   60.00 | X-H torsion

> <Gold.Protein.ActiveResidues>
 TYR305  THR331  LEU332  MET333  LEU349  GLY350  MET351  HIS352  GLY353  ASN358 
 VAL372  ARG373  PHE374  ASP375  ASP376  ARG377  VAL378  THR379  GLY380  LYS381 
 LEU382  PHE385  ASN404  GLY508  GLY509  TRP574  ILE651  PRO652  SER653  GLY654 
 GLY655  FAD702  HOH839  HOH865  HOH881  HOH913  HOH945  HOH958  HOH960  HOH966 
 HOH968 

> <Gold.Protein.RotatedAtoms>
   60.1209  -74.5025   -3.1243 H   0  0  0  0  0  0  0  0  0  0  0  0  # atno 6459 bound_to 1704
   61.9869  -67.8879   -5.6868 H   0  0  0  0  0  0  0  0  0  0  0  0  # atno 6656 bound_to 1882
   63.5395  -90.3033   -1.9728 H   0  0  0  0  0  0  0  0  0  0  0  0  # atno 6986 bound_to 2270
   62.5678  -89.5099   -0.8893 H   0  0  0  0  0  0  0  0  0  0  0  0  # atno 6987 bound_to 2270
   61.8906  -90.3959   -2.1156 H   0  0  0  0  0  0  0  0  0  0  0  0  # atno 6988 bound_to 2270
   61.2771  -81.1115   -5.4017 H   0  0  0  0  0  0  0  0  0  0  0  0  # atno 7002 bound_to 2256
   68.7087  -80.8629  -11.3842 H   0  0  0  0  0  0  0  0  0  0  0  0  # atno 9089 bound_to 4362
   53.0517  -69.5617   -6.8100 H   0  0  0  0  0  0  0  0  0  0  0  0  # atno 9191 bound_to 4472
   51.2990  -67.8336   -9.3277 H   0  0  0  0  0  0  0  0  0  0  0  0  # atno 9201 bound_to 4474
   62.8923  -71.4418   -6.8888 H   0  0  0  0  0  0  0  0  0  0  0  0  # atno 9214 bound_to 4510
   63.5965  -72.1573  -12.0019 H   0  0  0  0  0  0  0  0  0  0  0  0  # atno 9219 bound_to 4506
   63.0918  -70.0199  -11.8132 H   0  0  0  0  0  0  0  0  0  0  0  0  # atno 9220 bound_to 4508
   61.2328  -73.3333   -3.3351 LP  0  0  0  0  0  0  0  0  0  0  0  0  # atno 9615 bound_to 1704
   59.6783  -73.0720   -3.7614 LP  0  0  0  0  0  0  0  0  0  0  0  0  # atno 9616 bound_to 1704
   62.8922  -66.8986   -4.7648 LP  0  0  0  0  0  0  0  0  0  0  0  0  # atno 9619 bound_to 1882
   61.5321  -67.5679   -4.1574 LP  0  0  0  0  0  0  0  0  0  0  0  0  # atno 9620 bound_to 1882
   62.1041  -79.8060   -5.9114 LP  0  0  0  0  0  0  0  0  0  0  0  0  # atno 9664 bound_to 2256
   60.4768  -79.7481   -5.7876 LP  0  0  0  0  0  0  0  0  0  0  0  0  # atno 9665 bound_to 2256
   69.0021  -81.4189  -12.8851 LP  0  0  0  0  0  0  0  0  0  0  0  0  # atno 9690 bound_to 4362
   70.2229  -81.2804  -11.8095 LP  0  0  0  0  0  0  0  0  0  0  0  0  # atno 9691 bound_to 4362
   53.6654  -70.2102   -8.1705 LP  0  0  0  0  0  0  0  0  0  0  0  0  # atno 9698 bound_to 4472
   52.1768  -69.5388   -8.1819 LP  0  0  0  0  0  0  0  0  0  0  0  0  # atno 9699 bound_to 4472
   50.6654  -66.9746   -8.0994 LP  0  0  0  0  0  0  0  0  0  0  0  0  # atno 9700 bound_to 4474
   51.1949  -68.4984   -7.8461 LP  0  0  0  0  0  0  0  0  0  0  0  0  # atno 9701 bound_to 4474
   64.3606  -73.4026  -11.2853 LP  0  0  0  0  0  0  0  0  0  0  0  0  # atno 9709 bound_to 4506
   65.2223  -72.1763  -11.9338 LP  0  0  0  0  0  0  0  0  0  0  0  0  # atno 9710 bound_to 4506
   63.9405  -69.3181  -10.6152 LP  0  0  0  0  0  0  0  0  0  0  0  0  # atno 9711 bound_to 4508
   62.3127  -69.1923  -10.6487 LP  0  0  0  0  0  0  0  0  0  0  0  0  # atno 9712 bound_to 4508
   63.9076  -72.0363   -8.0130 LP  0  0  0  0  0  0  0  0  0  0  0  0  # atno 9713 bound_to 4510
   62.3237  -72.4318   -8.0485 LP  0  0  0  0  0  0  0  0  0  0  0  0  # atno 9714 bound_to 4510

$$$$
