C12H12ClN5O4S|Chlorsulfuron|mol|1|dock33
  -GOLD-   2292219383D 1   1.00000     0.00000
 
 35 36  0  0  0  0  0  0  0  0  1 V2000
   64.0308  -74.6210  -17.9846 C   0  0  0  0  0  0  0  0  0  0  0  0
   64.4366  -74.9726  -16.5765 C   0  0  0  0  0  0  0  0  0  0  0  0
   64.1550  -76.1676  -16.0882 N   0  0  0  0  0  0  0  0  0  0  0  0
   64.5120  -76.4806  -14.8458 C   0  0  0  0  0  0  0  0  0  0  0  0
   65.1519  -75.5904  -14.0966 N   0  0  0  0  0  0  0  0  0  0  0  0
   65.4330  -74.3913  -14.5905 C   0  0  0  0  0  0  0  0  0  0  0  0
   65.0784  -74.0866  -15.8344 N   0  0  0  0  0  0  0  0  0  0  0  0
   66.0844  -73.4814  -13.8299 O   0  0  0  0  0  0  0  0  0  0  0  0
   67.3955  -74.0001  -13.5974 C   0  0  0  0  0  0  0  0  0  0  0  0
   64.2163  -77.7335  -14.3339 N   0  0  0  0  0  0  0  0  0  0  0  0
   64.4752  -78.8374  -15.0625 C   0  0  0  0  0  0  0  0  0  0  0  0
   64.9682  -78.7337  -16.1688 O   0  0  0  0  0  0  0  0  0  0  0  0
   64.1874  -80.0564  -14.5646 N   0  0  0  0  0  0  0  0  0  0  0  0
   64.3874  -81.4038  -15.5063 S   0  0  0  0  0  0  0  0  0  0  0  0
   65.6643  -81.2643  -16.1137 O   0  0  0  0  0  0  0  0  0  0  0  0
   63.9739  -82.5009  -14.7033 O   0  0  0  0  0  0  0  0  0  0  0  0
   63.2185  -81.3057  -16.8211 C   0  0  0  0  0  0  0  0  0  0  0  0
   63.6400  -81.4310  -18.1312 C   0  0  0  0  0  0  0  0  0  0  0  0
   62.7230  -81.3540  -19.1631 C   0  0  0  0  0  0  0  0  0  0  0  0
   61.3844  -81.1512  -18.8850 C   0  0  0  0  0  0  0  0  0  0  0  0
   60.9616  -81.0252  -17.5750 C   0  0  0  0  0  0  0  0  0  0  0  0
   61.8777  -81.1087  -16.5418 C   0  0  0  0  0  0  0  0  0  0  0  0
   61.3475  -80.9512  -14.8963 Cl  0  0  0  0  0  0  0  0  0  0  0  0
   63.0331  -74.1821  -17.9764 H   0  0  0  0  0  0  0  0  0  0  0  0
   64.7397  -73.9040  -18.3988 H   0  0  0  0  0  0  0  0  0  0  0  0
   64.0260  -75.5226  -18.5972 H   0  0  0  0  0  0  0  0  0  0  0  0
   67.9610  -73.2974  -12.9854 H   0  0  0  0  0  0  0  0  0  0  0  0
   67.3214  -74.9559  -13.0788 H   0  0  0  0  0  0  0  0  0  0  0  0
   67.9042  -74.1427  -14.5509 H   0  0  0  0  0  0  0  0  0  0  0  0
   63.8228  -77.8163  -13.4511 H   0  0  0  0  0  0  0  0  0  0  0  0
   63.8633  -80.1443  -13.6546 H   0  0  0  0  0  0  0  0  0  0  0  0
   64.6860  -81.5888  -18.3492 H   0  0  0  0  0  0  0  0  0  0  0  0
   63.0528  -81.4520  -20.1868 H   0  0  0  0  0  0  0  0  0  0  0  0
   60.6685  -81.0908  -19.6915 H   0  0  0  0  0  0  0  0  0  0  0  0
   59.9157  -80.8659  -17.3579 H   0  0  0  0  0  0  0  0  0  0  0  0
  1  2  1  0  0  0  0
  2  3  2  0  0  0  0
  3  4  1  0  0  0  0
  4  5  2  0  0  0  0
  5  6  1  0  0  0  0
  6  7  2  0  0  0  0
  2  7  1  0  0  0  0
  6  8  1  0  0  0  0
  8  9  1  0  0  0  0
  4 10  1  0  0  0  0
 10 11  1  0  0  0  0
 11 12  2  0  0  0  0
 11 13  1  0  0  0  0
 13 14  1  0  0  0  0
 14 15  2  0  0  0  0
 14 16  2  0  0  0  0
 14 17  1  0  0  0  0
 17 18  2  0  0  0  0
 18 19  1  0  0  0  0
 19 20  2  0  0  0  0
 20 21  1  0  0  0  0
 21 22  2  0  0  0  0
 17 22  1  0  0  0  0
 22 23  1  0  0  0  0
  1 24  1  0  0  0  0
  1 25  1  0  0  0  0
  1 26  1  0  0  0  0
  9 27  1  0  0  0  0
  9 28  1  0  0  0  0
  9 29  1  0  0  0  0
 10 30  1  0  0  0  0
 13 31  1  0  0  0  0
 18 32  1  0  0  0  0
 19 33  1  0  0  0  0
 20 34  1  0  0  0  0
 21 35  1  0  0  0  0
M  END
> <Gold.Version>
2021.2.0

> <Gold.Id.Protein>
5K6Q|5K6Q_protein|mol2

> <Gold.PLP.Fitness>
25.4716

> <Gold.PLP.PLP>
-19.3220

> <Gold.PLP.part.hbond>
-5.7104

> <Gold.PLP.part.metal>
0.0000

> <Gold.PLP.part.buried>
-5.0244

> <Gold.PLP.part.nonpolar>
-11.4441

> <Gold.PLP.part.repulsive>
1.7343

> <Gold.PLP.ligand.clash>
0.0000

> <Gold.PLP.ligand.torsion>
2.0310

> <Gold.PLP.Chemscore.Hbond>
2.3141

> <Gold.PLP.Chemscore.CHOScore>
0.0000

> <Gold.PLP.Chemscore.Metal>
0.0000

> <Gold.Chemscore.Hbonds>
donor molecule, donor type, donor heavy atom, donor atom, acceptor molecule, acceptor atom, score
      L1  H    10    30       P1  2232  0.21
      L1  H    13    31       P1  2232  1.00
      P1  H  4506  9219       L1     8  0.10
      P1  H  4724  9546       L1    15  1.00

> <Gold.PLP.Chemscore.Internal.Correction>
3.2693

> <Gold.Protein.RotatedTorsions>
[ 6459 1704 1703 1701 ] final   72.34 input   60.01 | X-H torsion
[ 6656 1882 1881 1878 ] final -137.01 input   60.00 | X-H torsion
[ 7002 2256 2255 2252 ] final  -56.42 input   60.00 | X-H torsion
[ 6986 2270 2269 2268 ] final   90.36 input   59.99 | X-H torsion
[ 9089 4362 4361 4358 ] final  124.68 input   60.01 | X-H torsion
[ 9191 4472 4471 4469 ] final  -53.10 input   60.00 | X-H torsion
[ 9201 4474 4473 4471 ] final  161.97 input   60.00 | X-H torsion
[ 9219 4506 4505 4504 ] final   29.07 input   60.00 | X-H torsion
[ 9220 4508 4507 4505 ] final   97.72 input   60.00 | X-H torsion
[ 9214 4510 4509 4507 ] final   73.07 input   60.00 | X-H torsion

> <Gold.Protein.ActiveResidues>
 TYR305  THR331  LEU332  MET333  LEU349  GLY350  MET351  HIS352  GLY353  ASN358 
 VAL372  ARG373  PHE374  ASP375  ASP376  ARG377  VAL378  THR379  GLY380  LYS381 
 LEU382  PHE385  ASN404  GLY508  GLY509  TRP574  ILE651  PRO652  SER653  GLY654 
 GLY655  FAD702  HOH839  HOH865  HOH881  HOH913  HOH945  HOH958  HOH960  HOH966 
 HOH968 

> <Gold.Protein.RotatedAtoms>
   61.1122  -74.0627   -3.0820 H   0  0  0  0  0  0  0  0  0  0  0  0  # atno 6459 bound_to 1704
   61.3476  -67.8737   -4.5949 H   0  0  0  0  0  0  0  0  0  0  0  0  # atno 6656 bound_to 1882
   63.5697  -89.8886   -1.4016 H   0  0  0  0  0  0  0  0  0  0  0  0  # atno 6986 bound_to 2270
   61.9415  -89.6993   -1.1557 H   0  0  0  0  0  0  0  0  0  0  0  0  # atno 6987 bound_to 2270
   62.4870  -90.6213   -2.4205 H   0  0  0  0  0  0  0  0  0  0  0  0  # atno 6988 bound_to 2270
   61.6822  -79.4296   -5.9971 H   0  0  0  0  0  0  0  0  0  0  0  0  # atno 7002 bound_to 2256
   69.9742  -81.5044  -12.6029 H   0  0  0  0  0  0  0  0  0  0  0  0  # atno 9089 bound_to 4362
   53.8214  -70.1456   -7.6800 H   0  0  0  0  0  0  0  0  0  0  0  0  # atno 9191 bound_to 4472
   50.6660  -67.0277   -8.0063 H   0  0  0  0  0  0  0  0  0  0  0  0  # atno 9201 bound_to 4474
   63.9603  -71.8453   -7.7744 H   0  0  0  0  0  0  0  0  0  0  0  0  # atno 9214 bound_to 4510
   65.3231  -72.4884  -11.7542 H   0  0  0  0  0  0  0  0  0  0  0  0  # atno 9219 bound_to 4506
   62.6726  -69.9326  -11.7370 H   0  0  0  0  0  0  0  0  0  0  0  0  # atno 9220 bound_to 4508
   60.3945  -72.7543   -3.7308 LP  0  0  0  0  0  0  0  0  0  0  0  0  # atno 9615 bound_to 1704
   59.5183  -74.0940   -3.4083 LP  0  0  0  0  0  0  0  0  0  0  0  0  # atno 9616 bound_to 1704
   62.4621  -67.5886   -5.7459 LP  0  0  0  0  0  0  0  0  0  0  0  0  # atno 9619 bound_to 1882
   62.6059  -66.8923   -4.2759 LP  0  0  0  0  0  0  0  0  0  0  0  0  # atno 9620 bound_to 1882
   60.3498  -80.2756   -5.6009 LP  0  0  0  0  0  0  0  0  0  0  0  0  # atno 9664 bound_to 2256
   61.8232  -80.9722   -5.4985 LP  0  0  0  0  0  0  0  0  0  0  0  0  # atno 9665 bound_to 2256
   69.5332  -80.9308  -11.1452 LP  0  0  0  0  0  0  0  0  0  0  0  0  # atno 9690 bound_to 4362
   68.4175  -81.1225  -12.3221 LP  0  0  0  0  0  0  0  0  0  0  0  0  # atno 9691 bound_to 4362
   52.4849  -69.7726   -8.5302 LP  0  0  0  0  0  0  0  0  0  0  0  0  # atno 9698 bound_to 4472
   52.5821  -69.3883   -6.9461 LP  0  0  0  0  0  0  0  0  0  0  0  0  # atno 9699 bound_to 4472
   51.2356  -68.5501   -7.9310 LP  0  0  0  0  0  0  0  0  0  0  0  0  # atno 9700 bound_to 4474
   51.2622  -67.7344   -9.3453 LP  0  0  0  0  0  0  0  0  0  0  0  0  # atno 9701 bound_to 4474
   63.8484  -71.9129  -12.1309 LP  0  0  0  0  0  0  0  0  0  0  0  0  # atno 9709 bound_to 4506
   63.9958  -73.3326  -11.3377 LP  0  0  0  0  0  0  0  0  0  0  0  0  # atno 9710 bound_to 4506
   64.0546  -69.5551  -10.9653 LP  0  0  0  0  0  0  0  0  0  0  0  0  # atno 9711 bound_to 4508
   62.6206  -69.0431  -10.3753 LP  0  0  0  0  0  0  0  0  0  0  0  0  # atno 9712 bound_to 4508
   62.5536  -72.5186   -8.2392 LP  0  0  0  0  0  0  0  0  0  0  0  0  # atno 9713 bound_to 4510
   62.6021  -71.5432   -6.9305 LP  0  0  0  0  0  0  0  0  0  0  0  0  # atno 9714 bound_to 4510

$$$$
