C12H12ClN5O4S|Chlorsulfuron|mol|1|dock37
  -GOLD-   2292219383D 1   1.00000     0.00000
 
 35 36  0  0  0  0  0  0  0  0  1 V2000
   57.9013  -78.0913  -16.7111 C   0  0  0  0  0  0  0  0  0  0  0  0
   58.8990  -77.3768  -15.8363 C   0  0  0  0  0  0  0  0  0  0  0  0
   60.0095  -77.9898  -15.4666 N   0  0  0  0  0  0  0  0  0  0  0  0
   60.8918  -77.3615  -14.6945 C   0  0  0  0  0  0  0  0  0  0  0  0
   60.6550  -76.1173  -14.2959 N   0  0  0  0  0  0  0  0  0  0  0  0
   59.5386  -75.5050  -14.6694 C   0  0  0  0  0  0  0  0  0  0  0  0
   58.6636  -76.1361  -15.4452 N   0  0  0  0  0  0  0  0  0  0  0  0
   59.2937  -74.2372  -14.2647 O   0  0  0  0  0  0  0  0  0  0  0  0
   59.7229  -73.3761  -15.3212 C   0  0  0  0  0  0  0  0  0  0  0  0
   62.0558  -78.0046  -14.3065 N   0  0  0  0  0  0  0  0  0  0  0  0
   62.9244  -78.4460  -15.2378 C   0  0  0  0  0  0  0  0  0  0  0  0
   62.6862  -78.2799  -16.4183 O   0  0  0  0  0  0  0  0  0  0  0  0
   64.0569  -79.0718  -14.8604 N   0  0  0  0  0  0  0  0  0  0  0  0
   65.0620  -79.7252  -16.0029 S   0  0  0  0  0  0  0  0  0  0  0  0
   65.3435  -78.6738  -16.9162 O   0  0  0  0  0  0  0  0  0  0  0  0
   66.0334  -80.4704  -15.2816 O   0  0  0  0  0  0  0  0  0  0  0  0
   64.1268  -80.9107  -16.9111 C   0  0  0  0  0  0  0  0  0  0  0  0
   64.1994  -80.9381  -18.2908 C   0  0  0  0  0  0  0  0  0  0  0  0
   63.4656  -81.8681  -19.0037 C   0  0  0  0  0  0  0  0  0  0  0  0
   62.6587  -82.7707  -18.3368 C   0  0  0  0  0  0  0  0  0  0  0  0
   62.5849  -82.7441  -16.9567 C   0  0  0  0  0  0  0  0  0  0  0  0
   63.3239  -81.8179  -16.2426 C   0  0  0  0  0  0  0  0  0  0  0  0
   63.2322  -81.7842  -14.5094 Cl  0  0  0  0  0  0  0  0  0  0  0  0
   57.1841  -78.6224  -16.0854 H   0  0  0  0  0  0  0  0  0  0  0  0
   57.3751  -77.3648  -17.3304 H   0  0  0  0  0  0  0  0  0  0  0  0
   58.4231  -78.8036  -17.3503 H   0  0  0  0  0  0  0  0  0  0  0  0
   59.5444  -72.3384  -15.0393 H   0  0  0  0  0  0  0  0  0  0  0  0
   60.7873  -73.5257  -15.5021 H   0  0  0  0  0  0  0  0  0  0  0  0
   59.1642  -73.6075  -16.2282 H   0  0  0  0  0  0  0  0  0  0  0  0
   62.2459  -78.1373  -13.3646 H   0  0  0  0  0  0  0  0  0  0  0  0
   64.2832  -79.1392  -13.9197 H   0  0  0  0  0  0  0  0  0  0  0  0
   64.8292  -80.2325  -18.8125 H   0  0  0  0  0  0  0  0  0  0  0  0
   63.5226  -81.8891  -20.0819 H   0  0  0  0  0  0  0  0  0  0  0  0
   62.0855  -83.4968  -18.8942 H   0  0  0  0  0  0  0  0  0  0  0  0
   61.9538  -83.4488  -16.4358 H   0  0  0  0  0  0  0  0  0  0  0  0
  1  2  1  0  0  0  0
  2  3  2  0  0  0  0
  3  4  1  0  0  0  0
  4  5  2  0  0  0  0
  5  6  1  0  0  0  0
  6  7  2  0  0  0  0
  2  7  1  0  0  0  0
  6  8  1  0  0  0  0
  8  9  1  0  0  0  0
  4 10  1  0  0  0  0
 10 11  1  0  0  0  0
 11 12  2  0  0  0  0
 11 13  1  0  0  0  0
 13 14  1  0  0  0  0
 14 15  2  0  0  0  0
 14 16  2  0  0  0  0
 14 17  1  0  0  0  0
 17 18  2  0  0  0  0
 18 19  1  0  0  0  0
 19 20  2  0  0  0  0
 20 21  1  0  0  0  0
 21 22  2  0  0  0  0
 17 22  1  0  0  0  0
 22 23  1  0  0  0  0
  1 24  1  0  0  0  0
  1 25  1  0  0  0  0
  1 26  1  0  0  0  0
  9 27  1  0  0  0  0
  9 28  1  0  0  0  0
  9 29  1  0  0  0  0
 10 30  1  0  0  0  0
 13 31  1  0  0  0  0
 18 32  1  0  0  0  0
 19 33  1  0  0  0  0
 20 34  1  0  0  0  0
 21 35  1  0  0  0  0
M  END
> <Gold.Version>
2021.2.0

> <Gold.Id.Protein>
5K6Q|5K6Q_protein|mol2

> <Gold.PLP.Fitness>
27.8781

> <Gold.PLP.PLP>
-15.9132

> <Gold.PLP.part.hbond>
-7.8352

> <Gold.PLP.part.metal>
0.0000

> <Gold.PLP.part.buried>
-3.9994

> <Gold.PLP.part.nonpolar>
-5.3112

> <Gold.PLP.part.repulsive>
0.4738

> <Gold.PLP.ligand.clash>
0.0000

> <Gold.PLP.ligand.torsion>
2.5432

> <Gold.PLP.Chemscore.Hbond>
4.5940

> <Gold.PLP.Chemscore.CHOScore>
0.0000

> <Gold.PLP.Chemscore.Metal>
0.0000

> <Gold.Chemscore.Hbonds>
donor molecule, donor type, donor heavy atom, donor atom, acceptor molecule, acceptor atom, score
      L1  H    10    30       P1  2231  0.85
      L1  H    13    31       P1  2232  1.00
      P1  H  2204  6935       L1     8  0.96
      P1  H  2243  6968       L1    16  0.78
      P1  H  4724  9546       L1    16  1.00

> <Gold.PLP.Chemscore.Internal.Correction>
3.2693

> <Gold.Protein.RotatedTorsions>
[ 6459 1704 1703 1701 ] final -107.10 input   60.01 | X-H torsion
[ 6656 1882 1881 1878 ] final  -51.59 input   60.00 | X-H torsion
[ 7002 2256 2255 2252 ] final  -52.27 input   60.00 | X-H torsion
[ 6986 2270 2269 2268 ] final   26.74 input   59.99 | X-H torsion
[ 9089 4362 4361 4358 ] final   39.21 input   60.01 | X-H torsion
[ 9191 4472 4471 4469 ] final -156.62 input   60.00 | X-H torsion
[ 9201 4474 4473 4471 ] final  160.63 input   60.00 | X-H torsion
[ 9219 4506 4505 4504 ] final   73.69 input   60.00 | X-H torsion
[ 9220 4508 4507 4505 ] final -178.70 input   60.00 | X-H torsion
[ 9214 4510 4509 4507 ] final  108.04 input   60.00 | X-H torsion

> <Gold.Protein.ActiveResidues>
 TYR305  THR331  LEU332  MET333  LEU349  GLY350  MET351  HIS352  GLY353  ASN358 
 VAL372  ARG373  PHE374  ASP375  ASP376  ARG377  VAL378  THR379  GLY380  LYS381 
 LEU382  PHE385  ASN404  GLY508  GLY509  TRP574  ILE651  PRO652  SER653  GLY654 
 GLY655  FAD702  HOH839  HOH865  HOH881  HOH913  HOH945  HOH958  HOH960  HOH966 
 HOH968 

> <Gold.Protein.RotatedAtoms>
   59.5792  -73.2046   -3.7295 H   0  0  0  0  0  0  0  0  0  0  0  0  # atno 6459 bound_to 1704
   62.1566  -67.0894   -4.0088 H   0  0  0  0  0  0  0  0  0  0  0  0  # atno 6656 bound_to 1882
   63.3496  -90.4661   -2.1989 H   0  0  0  0  0  0  0  0  0  0  0  0  # atno 6986 bound_to 2270
   62.9040  -89.5261   -0.9084 H   0  0  0  0  0  0  0  0  0  0  0  0  # atno 6987 bound_to 2270
   61.7442  -90.2168   -1.8704 H   0  0  0  0  0  0  0  0  0  0  0  0  # atno 6988 bound_to 2270
   61.7423  -79.4606   -5.9921 H   0  0  0  0  0  0  0  0  0  0  0  0  # atno 7002 bound_to 2256
   69.9998  -81.1036  -11.3974 H   0  0  0  0  0  0  0  0  0  0  0  0  # atno 9089 bound_to 4362
   52.7113  -69.8944   -8.6112 H   0  0  0  0  0  0  0  0  0  0  0  0  # atno 9191 bound_to 4472
   50.6657  -67.0389   -7.9874 H   0  0  0  0  0  0  0  0  0  0  0  0  # atno 9201 bound_to 4474
   63.8102  -71.5468   -7.3218 H   0  0  0  0  0  0  0  0  0  0  0  0  # atno 9214 bound_to 4510
   65.1139  -73.0857  -11.4305 H   0  0  0  0  0  0  0  0  0  0  0  0  # atno 9219 bound_to 4506
   62.2484  -69.2678  -10.7699 H   0  0  0  0  0  0  0  0  0  0  0  0  # atno 9220 bound_to 4508
   60.2836  -74.5224   -3.0850 LP  0  0  0  0  0  0  0  0  0  0  0  0  # atno 9615 bound_to 1704
   61.1731  -73.1900   -3.4019 LP  0  0  0  0  0  0  0  0  0  0  0  0  # atno 9616 bound_to 1704
   61.4342  -68.0281   -5.1246 LP  0  0  0  0  0  0  0  0  0  0  0  0  # atno 9619 bound_to 1882
   62.8191  -67.2425   -5.4873 LP  0  0  0  0  0  0  0  0  0  0  0  0  # atno 9620 bound_to 1882
   60.3464  -80.2108   -5.6222 LP  0  0  0  0  0  0  0  0  0  0  0  0  # atno 9664 bound_to 2256
   61.7659  -81.0058   -5.4823 LP  0  0  0  0  0  0  0  0  0  0  0  0  # atno 9665 bound_to 2256
   68.4287  -80.9459  -11.7911 LP  0  0  0  0  0  0  0  0  0  0  0  0  # atno 9690 bound_to 4362
   69.4961  -81.5110  -12.8902 LP  0  0  0  0  0  0  0  0  0  0  0  0  # atno 9691 bound_to 4362
   52.3781  -69.3421   -7.1172 LP  0  0  0  0  0  0  0  0  0  0  0  0  # atno 9698 bound_to 4472
   53.8070  -70.0717   -7.4213 LP  0  0  0  0  0  0  0  0  0  0  0  0  # atno 9699 bound_to 4472
   51.2437  -68.5595   -7.9492 LP  0  0  0  0  0  0  0  0  0  0  0  0  # atno 9700 bound_to 4474
   51.2544  -67.7138   -9.3461 LP  0  0  0  0  0  0  0  0  0  0  0  0  # atno 9701 bound_to 4474
   64.5458  -71.7625  -12.1885 LP  0  0  0  0  0  0  0  0  0  0  0  0  # atno 9709 bound_to 4506
   63.5090  -72.8815  -11.6060 LP  0  0  0  0  0  0  0  0  0  0  0  0  # atno 9710 bound_to 4506
   63.2481  -70.0264  -11.8058 LP  0  0  0  0  0  0  0  0  0  0  0  0  # atno 9711 bound_to 4508
   63.8543  -69.2413  -10.5087 LP  0  0  0  0  0  0  0  0  0  0  0  0  # atno 9712 bound_to 4508
   63.0934  -72.5198   -8.4115 LP  0  0  0  0  0  0  0  0  0  0  0  0  # atno 9713 bound_to 4510
   62.2136  -71.8426   -7.2140 LP  0  0  0  0  0  0  0  0  0  0  0  0  # atno 9714 bound_to 4510

$$$$
