C12H12ClN5O4S|Chlorsulfuron|mol|1|dock47
  -GOLD-   2292219383D 1   1.00000     0.00000
 
 35 36  0  0  0  0  0  0  0  0  1 V2000
   60.2203  -82.5059  -12.5381 C   0  0  0  0  0  0  0  0  0  0  0  0
   59.4535  -81.2670  -12.9232 C   0  0  0  0  0  0  0  0  0  0  0  0
   60.0012  -80.0756  -12.7604 N   0  0  0  0  0  0  0  0  0  0  0  0
   59.3268  -78.9804  -13.0995 C   0  0  0  0  0  0  0  0  0  0  0  0
   58.1022  -79.0860  -13.6018 N   0  0  0  0  0  0  0  0  0  0  0  0
   57.5555  -80.2843  -13.7637 C   0  0  0  0  0  0  0  0  0  0  0  0
   58.2366  -81.3748  -13.4281 N   0  0  0  0  0  0  0  0  0  0  0  0
   56.3076  -80.3957  -14.2748 O   0  0  0  0  0  0  0  0  0  0  0  0
   55.4758  -80.8992  -13.2276 C   0  0  0  0  0  0  0  0  0  0  0  0
   59.9011  -77.7314  -12.9283 N   0  0  0  0  0  0  0  0  0  0  0  0
   59.5568  -76.7141  -13.7426 C   0  0  0  0  0  0  0  0  0  0  0  0
   58.7423  -76.8926  -14.6273 O   0  0  0  0  0  0  0  0  0  0  0  0
   60.1155  -75.4989  -13.5762 N   0  0  0  0  0  0  0  0  0  0  0  0
   59.7891  -74.2831  -14.6521 S   0  0  0  0  0  0  0  0  0  0  0  0
   58.3761  -74.2684  -14.8012 O   0  0  0  0  0  0  0  0  0  0  0  0
   60.5844  -73.1797  -14.2407 O   0  0  0  0  0  0  0  0  0  0  0  0
   60.4304  -74.7782  -16.2168 C   0  0  0  0  0  0  0  0  0  0  0  0
   59.6173  -74.7600  -17.3341 C   0  0  0  0  0  0  0  0  0  0  0  0
   60.1203  -75.1485  -18.5619 C   0  0  0  0  0  0  0  0  0  0  0  0
   61.4365  -75.5558  -18.6726 C   0  0  0  0  0  0  0  0  0  0  0  0
   62.2507  -75.5749  -17.5557 C   0  0  0  0  0  0  0  0  0  0  0  0
   61.7498  -75.1800  -16.3282 C   0  0  0  0  0  0  0  0  0  0  0  0
   62.7719  -75.2032  -14.9251 Cl  0  0  0  0  0  0  0  0  0  0  0  0
   60.0119  -82.7533  -11.4972 H   0  0  0  0  0  0  0  0  0  0  0  0
   59.9154  -83.3350  -13.1766 H   0  0  0  0  0  0  0  0  0  0  0  0
   61.2881  -82.3255  -12.6618 H   0  0  0  0  0  0  0  0  0  0  0  0
   54.4549  -81.0062  -13.5942 H   0  0  0  0  0  0  0  0  0  0  0  0
   55.8489  -81.8703  -12.9024 H   0  0  0  0  0  0  0  0  0  0  0  0
   55.4893  -80.2049  -12.3873 H   0  0  0  0  0  0  0  0  0  0  0  0
   60.5510  -77.5890  -12.2225 H   0  0  0  0  0  0  0  0  0  0  0  0
   60.7087  -75.3366  -12.8261 H   0  0  0  0  0  0  0  0  0  0  0  0
   58.5886  -74.4425  -17.2480 H   0  0  0  0  0  0  0  0  0  0  0  0
   59.4845  -75.1341  -19.4348 H   0  0  0  0  0  0  0  0  0  0  0  0
   61.8288  -75.8594  -19.6320 H   0  0  0  0  0  0  0  0  0  0  0  0
   63.2789  -75.8939  -17.6422 H   0  0  0  0  0  0  0  0  0  0  0  0
  1  2  1  0  0  0  0
  2  3  2  0  0  0  0
  3  4  1  0  0  0  0
  4  5  2  0  0  0  0
  5  6  1  0  0  0  0
  6  7  2  0  0  0  0
  2  7  1  0  0  0  0
  6  8  1  0  0  0  0
  8  9  1  0  0  0  0
  4 10  1  0  0  0  0
 10 11  1  0  0  0  0
 11 12  2  0  0  0  0
 11 13  1  0  0  0  0
 13 14  1  0  0  0  0
 14 15  2  0  0  0  0
 14 16  2  0  0  0  0
 14 17  1  0  0  0  0
 17 18  2  0  0  0  0
 18 19  1  0  0  0  0
 19 20  2  0  0  0  0
 20 21  1  0  0  0  0
 21 22  2  0  0  0  0
 17 22  1  0  0  0  0
 22 23  1  0  0  0  0
  1 24  1  0  0  0  0
  1 25  1  0  0  0  0
  1 26  1  0  0  0  0
  9 27  1  0  0  0  0
  9 28  1  0  0  0  0
  9 29  1  0  0  0  0
 10 30  1  0  0  0  0
 13 31  1  0  0  0  0
 18 32  1  0  0  0  0
 19 33  1  0  0  0  0
 20 34  1  0  0  0  0
 21 35  1  0  0  0  0
M  END
> <Gold.Version>
2021.2.0

> <Gold.Id.Protein>
5K6Q|5K6Q_protein|mol2

> <Gold.PLP.Fitness>
27.0756

> <Gold.PLP.PLP>
-18.6974

> <Gold.PLP.part.hbond>
-4.1275

> <Gold.PLP.part.metal>
0.0000

> <Gold.PLP.part.buried>
-4.3155

> <Gold.PLP.part.nonpolar>
-12.2950

> <Gold.PLP.part.repulsive>
0.5476

> <Gold.PLP.ligand.clash>
0.0000

> <Gold.PLP.ligand.torsion>
1.8244

> <Gold.PLP.Chemscore.Hbond>
2.9193

> <Gold.PLP.Chemscore.CHOScore>
0.0000

> <Gold.PLP.Chemscore.Metal>
0.0000

> <Gold.Chemscore.Hbonds>
donor molecule, donor type, donor heavy atom, donor atom, acceptor molecule, acceptor atom, score
      L1  H    10    30       P1  2231  0.99
      L1  H    13    31       P1  2223  0.93
      P1  H  2205  6946       L1    16  1.00

> <Gold.PLP.Chemscore.Internal.Correction>
3.2693

> <Gold.Protein.RotatedTorsions>
[ 6459 1704 1703 1701 ] final -129.02 input   60.01 | X-H torsion
[ 6656 1882 1881 1878 ] final   49.55 input   60.00 | X-H torsion
[ 7002 2256 2255 2252 ] final -126.98 input   60.00 | X-H torsion
[ 6986 2270 2269 2268 ] final   42.08 input   59.99 | X-H torsion
[ 9089 4362 4361 4358 ] final -131.02 input   60.01 | X-H torsion
[ 9191 4472 4471 4469 ] final  147.30 input   60.00 | X-H torsion
[ 9201 4474 4473 4471 ] final   -5.08 input   60.00 | X-H torsion
[ 9219 4506 4505 4504 ] final   35.06 input   60.00 | X-H torsion
[ 9220 4508 4507 4505 ] final -177.21 input   60.00 | X-H torsion
[ 9214 4510 4509 4507 ] final  -34.88 input   60.00 | X-H torsion

> <Gold.Protein.ActiveResidues>
 TYR305  THR331  LEU332  MET333  LEU349  GLY350  MET351  HIS352  GLY353  ASN358 
 VAL372  ARG373  PHE374  ASP375  ASP376  ARG377  VAL378  THR379  GLY380  LYS381 
 LEU382  PHE385  ASN404  GLY508  GLY509  TRP574  ILE651  PRO652  SER653  GLY654 
 GLY655  FAD702  HOH839  HOH865  HOH881  HOH913  HOH945  HOH958  HOH960  HOH966 
 HOH968 

> <Gold.Protein.RotatedAtoms>
   59.4441  -73.5210   -3.6383 H   0  0  0  0  0  0  0  0  0  0  0  0  # atno 6459 bound_to 1704
   62.9129  -67.0822   -5.2418 H   0  0  0  0  0  0  0  0  0  0  0  0  # atno 6656 bound_to 1882
   63.5024  -90.3466   -2.0329 H   0  0  0  0  0  0  0  0  0  0  0  0  # atno 6986 bound_to 2270
   62.6505  -89.5074   -0.8850 H   0  0  0  0  0  0  0  0  0  0  0  0  # atno 6987 bound_to 2270
   61.8450  -90.3550   -2.0598 H   0  0  0  0  0  0  0  0  0  0  0  0  # atno 6988 bound_to 2270
   60.6213  -79.5827   -5.8529 H   0  0  0  0  0  0  0  0  0  0  0  0  # atno 7002 bound_to 2256
   68.5255  -81.2165  -12.5352 H   0  0  0  0  0  0  0  0  0  0  0  0  # atno 9089 bound_to 4362
   52.1438  -69.4916   -8.0722 H   0  0  0  0  0  0  0  0  0  0  0  0  # atno 9191 bound_to 4472
   51.4309  -68.5951   -8.6537 H   0  0  0  0  0  0  0  0  0  0  0  0  # atno 9201 bound_to 4474
   62.7306  -72.5372   -8.3245 H   0  0  0  0  0  0  0  0  0  0  0  0  # atno 9214 bound_to 4510
   65.3269  -72.5739  -11.7066 H   0  0  0  0  0  0  0  0  0  0  0  0  # atno 9219 bound_to 4506
   62.2577  -69.2563  -10.7508 H   0  0  0  0  0  0  0  0  0  0  0  0  # atno 9220 bound_to 4508
   60.6325  -74.4558   -3.0368 LP  0  0  0  0  0  0  0  0  0  0  0  0  # atno 9615 bound_to 1704
   60.9602  -72.9380   -3.5421 LP  0  0  0  0  0  0  0  0  0  0  0  0  # atno 9616 bound_to 1704
   61.8961  -67.2512   -3.9825 LP  0  0  0  0  0  0  0  0  0  0  0  0  # atno 9619 bound_to 1882
   61.5957  -68.0266   -5.3879 LP  0  0  0  0  0  0  0  0  0  0  0  0  # atno 9620 bound_to 1882
   61.0497  -81.0838   -5.3934 LP  0  0  0  0  0  0  0  0  0  0  0  0  # atno 9664 bound_to 2256
   62.1915  -80.0099   -5.8512 LP  0  0  0  0  0  0  0  0  0  0  0  0  # atno 9665 bound_to 2256
   70.1286  -81.4625  -12.4021 LP  0  0  0  0  0  0  0  0  0  0  0  0  # atno 9690 bound_to 4362
   69.2809  -80.8807  -11.1335 LP  0  0  0  0  0  0  0  0  0  0  0  0  # atno 9691 bound_to 4362
   53.1636  -69.6150   -6.8101 LP  0  0  0  0  0  0  0  0  0  0  0  0  # atno 9698 bound_to 4472
   53.5930  -70.2046   -8.2712 LP  0  0  0  0  0  0  0  0  0  0  0  0  # atno 9699 bound_to 4472
   50.9527  -67.1002   -9.0834 LP  0  0  0  0  0  0  0  0  0  0  0  0  # atno 9700 bound_to 4474
   50.7747  -67.6057   -7.5409 LP  0  0  0  0  0  0  0  0  0  0  0  0  # atno 9701 bound_to 4474
   63.9318  -71.8656  -12.1540 LP  0  0  0  0  0  0  0  0  0  0  0  0  # atno 9709 bound_to 4506
   63.9086  -73.2938  -11.3625 LP  0  0  0  0  0  0  0  0  0  0  0  0  # atno 9710 bound_to 4506
   63.2240  -70.0266  -11.8095 LP  0  0  0  0  0  0  0  0  0  0  0  0  # atno 9711 bound_to 4508
   63.8691  -69.2528  -10.5244 LP  0  0  0  0  0  0  0  0  0  0  0  0  # atno 9712 bound_to 4508
   62.4414  -71.6336   -7.0024 LP  0  0  0  0  0  0  0  0  0  0  0  0  # atno 9713 bound_to 4510
   63.9526  -71.7314   -7.6134 LP  0  0  0  0  0  0  0  0  0  0  0  0  # atno 9714 bound_to 4510

$$$$
