C12H12ClN5O4S|Chlorsulfuron|mol|1|dock5
  -GOLD-   2292219373D 1   1.00000     0.00000
 
 35 36  0  0  0  0  0  0  0  0  1 V2000
   67.3833  -73.9975  -13.7872 C   0  0  0  0  0  0  0  0  0  0  0  0
   66.4523  -74.9476  -14.4956 C   0  0  0  0  0  0  0  0  0  0  0  0
   65.3109  -75.2971  -13.9291 N   0  0  0  0  0  0  0  0  0  0  0  0
   64.4873  -76.1354  -14.5521 C   0  0  0  0  0  0  0  0  0  0  0  0
   64.8136  -76.6207  -15.7442 N   0  0  0  0  0  0  0  0  0  0  0  0
   65.9608  -76.2673  -16.3099 C   0  0  0  0  0  0  0  0  0  0  0  0
   66.7769  -75.4252  -15.6848 N   0  0  0  0  0  0  0  0  0  0  0  0
   66.2971  -76.7602  -17.5243 O   0  0  0  0  0  0  0  0  0  0  0  0
   66.4360  -75.6401  -18.4007 C   0  0  0  0  0  0  0  0  0  0  0  0
   63.2908  -76.5021  -13.9578 N   0  0  0  0  0  0  0  0  0  0  0  0
   62.1240  -76.0452  -14.4541 C   0  0  0  0  0  0  0  0  0  0  0  0
   62.1215  -75.3114  -15.4233 O   0  0  0  0  0  0  0  0  0  0  0  0
   60.9599  -76.4019  -13.8759 N   0  0  0  0  0  0  0  0  0  0  0  0
   59.5362  -75.7423  -14.4053 S   0  0  0  0  0  0  0  0  0  0  0  0
   58.5077  -76.5649  -13.8718 O   0  0  0  0  0  0  0  0  0  0  0  0
   59.6593  -74.3417  -14.1993 O   0  0  0  0  0  0  0  0  0  0  0  0
   59.4697  -75.9652  -16.1519 C   0  0  0  0  0  0  0  0  0  0  0  0
   59.6790  -74.8899  -16.9943 C   0  0  0  0  0  0  0  0  0  0  0  0
   59.6268  -75.0645  -18.3648 C   0  0  0  0  0  0  0  0  0  0  0  0
   59.3649  -76.3146  -18.8932 C   0  0  0  0  0  0  0  0  0  0  0  0
   59.1549  -77.3909  -18.0516 C   0  0  0  0  0  0  0  0  0  0  0  0
   59.2134  -77.2181  -16.6804 C   0  0  0  0  0  0  0  0  0  0  0  0
   58.9504  -78.5695  -15.6228 Cl  0  0  0  0  0  0  0  0  0  0  0  0
   68.0756  -74.5640  -13.1645 H   0  0  0  0  0  0  0  0  0  0  0  0
   67.9444  -73.4221  -14.5235 H   0  0  0  0  0  0  0  0  0  0  0  0
   66.8032  -73.3194  -13.1613 H   0  0  0  0  0  0  0  0  0  0  0  0
   66.7079  -75.9896  -19.3967 H   0  0  0  0  0  0  0  0  0  0  0  0
   65.4913  -75.0987  -18.4509 H   0  0  0  0  0  0  0  0  0  0  0  0
   67.2147  -74.9775  -18.0229 H   0  0  0  0  0  0  0  0  0  0  0  0
   63.2928  -77.0876  -13.1844 H   0  0  0  0  0  0  0  0  0  0  0  0
   60.9562  -77.0449  -13.1497 H   0  0  0  0  0  0  0  0  0  0  0  0
   59.8831  -73.9127  -16.5819 H   0  0  0  0  0  0  0  0  0  0  0  0
   59.7905  -74.2239  -19.0227 H   0  0  0  0  0  0  0  0  0  0  0  0
   59.3239  -76.4504  -19.9639 H   0  0  0  0  0  0  0  0  0  0  0  0
   58.9494  -78.3674  -18.4646 H   0  0  0  0  0  0  0  0  0  0  0  0
  1  2  1  0  0  0  0
  2  3  2  0  0  0  0
  3  4  1  0  0  0  0
  4  5  2  0  0  0  0
  5  6  1  0  0  0  0
  6  7  2  0  0  0  0
  2  7  1  0  0  0  0
  6  8  1  0  0  0  0
  8  9  1  0  0  0  0
  4 10  1  0  0  0  0
 10 11  1  0  0  0  0
 11 12  2  0  0  0  0
 11 13  1  0  0  0  0
 13 14  1  0  0  0  0
 14 15  2  0  0  0  0
 14 16  2  0  0  0  0
 14 17  1  0  0  0  0
 17 18  2  0  0  0  0
 18 19  1  0  0  0  0
 19 20  2  0  0  0  0
 20 21  1  0  0  0  0
 21 22  2  0  0  0  0
 17 22  1  0  0  0  0
 22 23  1  0  0  0  0
  1 24  1  0  0  0  0
  1 25  1  0  0  0  0
  1 26  1  0  0  0  0
  9 27  1  0  0  0  0
  9 28  1  0  0  0  0
  9 29  1  0  0  0  0
 10 30  1  0  0  0  0
 13 31  1  0  0  0  0
 18 32  1  0  0  0  0
 19 33  1  0  0  0  0
 20 34  1  0  0  0  0
 21 35  1  0  0  0  0
M  END
> <Gold.Version>
2021.2.0

> <Gold.Id.Protein>
5K6Q|5K6Q_protein|mol2

> <Gold.PLP.Fitness>
28.8341

> <Gold.PLP.PLP>
-21.2724

> <Gold.PLP.part.hbond>
-4.4780

> <Gold.PLP.part.metal>
0.0000

> <Gold.PLP.part.buried>
-5.3379

> <Gold.PLP.part.nonpolar>
-12.8753

> <Gold.PLP.part.repulsive>
0.4526

> <Gold.PLP.ligand.clash>
0.0000

> <Gold.PLP.ligand.torsion>
2.2087

> <Gold.PLP.Chemscore.Hbond>
2.9019

> <Gold.PLP.Chemscore.CHOScore>
0.0000

> <Gold.PLP.Chemscore.Metal>
0.0000

> <Gold.Chemscore.Hbonds>
donor molecule, donor type, donor heavy atom, donor atom, acceptor molecule, acceptor atom, score
      L1  H    10    30       P1  2231  1.00
      L1  H    13    31       P1  2231  0.10
      P1  H  2204  6935       L1    16  1.00
      P1  H  4718  9584       L1     8  0.80

> <Gold.PLP.Chemscore.Internal.Correction>
3.2734

> <Gold.Protein.RotatedTorsions>
[ 6459 1704 1703 1701 ] final  -42.64 input   60.01 | X-H torsion
[ 6656 1882 1881 1878 ] final   62.03 input   60.00 | X-H torsion
[ 7002 2256 2255 2252 ] final  127.68 input   60.00 | X-H torsion
[ 6986 2270 2269 2268 ] final  133.31 input   59.99 | X-H torsion
[ 9089 4362 4361 4358 ] final -130.46 input   60.01 | X-H torsion
[ 9191 4472 4471 4469 ] final  -37.00 input   60.00 | X-H torsion
[ 9201 4474 4473 4471 ] final  154.14 input   60.00 | X-H torsion
[ 9219 4506 4505 4504 ] final -121.92 input   60.00 | X-H torsion
[ 9220 4508 4507 4505 ] final   -1.05 input   60.00 | X-H torsion
[ 9214 4510 4509 4507 ] final   80.87 input   60.00 | X-H torsion

> <Gold.Protein.ActiveResidues>
 TYR305  THR331  LEU332  MET333  LEU349  GLY350  MET351  HIS352  GLY353  ASN358 
 VAL372  ARG373  PHE374  ASP375  ASP376  ARG377  VAL378  THR379  GLY380  LYS381 
 LEU382  PHE385  ASN404  GLY508  GLY509  TRP574  ILE651  PRO652  SER653  GLY654 
 GLY655  FAD702  HOH839  HOH865  HOH881  HOH913  HOH945  HOH958  HOH960  HOH966 
 HOH968 

> <Gold.Protein.RotatedAtoms>
   60.4739  -72.7617   -3.7087 H   0  0  0  0  0  0  0  0  0  0  0  0  # atno 6459 bound_to 1704
   62.8574  -67.1870   -5.4072 H   0  0  0  0  0  0  0  0  0  0  0  0  # atno 6656 bound_to 1882
   63.1131  -89.5743   -0.9732 H   0  0  0  0  0  0  0  0  0  0  0  0  # atno 6986 bound_to 2270
   61.7099  -90.0867   -1.6914 H   0  0  0  0  0  0  0  0  0  0  0  0  # atno 6987 bound_to 2270
   63.1755  -90.5480   -2.3132 H   0  0  0  0  0  0  0  0  0  0  0  0  # atno 6988 bound_to 2270
   60.8306  -80.9867   -5.4040 H   0  0  0  0  0  0  0  0  0  0  0  0  # atno 7002 bound_to 2256
   68.5208  -81.2132  -12.5280 H   0  0  0  0  0  0  0  0  0  0  0  0  # atno 9089 bound_to 4362
   53.8033  -70.0698   -7.4297 H   0  0  0  0  0  0  0  0  0  0  0  0  # atno 9191 bound_to 4472
   50.6675  -67.0983   -7.8998 H   0  0  0  0  0  0  0  0  0  0  0  0  # atno 9201 bound_to 4474
   63.9556  -71.7705   -7.6714 H   0  0  0  0  0  0  0  0  0  0  0  0  # atno 9214 bound_to 4510
   63.5353  -72.2597  -11.9474 H   0  0  0  0  0  0  0  0  0  0  0  0  # atno 9219 bound_to 4506
   63.9947  -69.7387  -11.2527 H   0  0  0  0  0  0  0  0  0  0  0  0  # atno 9220 bound_to 4508
   59.4848  -74.0258   -3.4412 LP  0  0  0  0  0  0  0  0  0  0  0  0  # atno 9615 bound_to 1704
   61.0707  -74.1327   -3.0667 LP  0  0  0  0  0  0  0  0  0  0  0  0  # atno 9616 bound_to 1704
   62.0666  -67.1375   -3.9857 LP  0  0  0  0  0  0  0  0  0  0  0  0  # atno 9619 bound_to 1882
   61.4811  -68.0347   -5.2182 LP  0  0  0  0  0  0  0  0  0  0  0  0  # atno 9620 bound_to 1882
   62.2254  -80.2368   -5.7787 LP  0  0  0  0  0  0  0  0  0  0  0  0  # atno 9664 bound_to 2256
   60.8051  -79.4430   -5.9180 LP  0  0  0  0  0  0  0  0  0  0  0  0  # atno 9665 bound_to 2256
   70.1242  -81.4644  -12.4100 LP  0  0  0  0  0  0  0  0  0  0  0  0  # atno 9690 bound_to 4362
   69.2900  -80.8821  -11.1327 LP  0  0  0  0  0  0  0  0  0  0  0  0  # atno 9691 bound_to 4362
   52.7030  -69.8945   -8.6158 LP  0  0  0  0  0  0  0  0  0  0  0  0  # atno 9698 bound_to 4472
   52.3823  -69.3428   -7.1126 LP  0  0  0  0  0  0  0  0  0  0  0  0  # atno 9699 bound_to 4472
   51.2812  -68.5988   -8.0411 LP  0  0  0  0  0  0  0  0  0  0  0  0  # atno 9700 bound_to 4474
   51.2151  -67.6146   -9.3425 LP  0  0  0  0  0  0  0  0  0  0  0  0  # atno 9701 bound_to 4474
   64.4925  -73.3962  -11.2840 LP  0  0  0  0  0  0  0  0  0  0  0  0  # atno 9709 bound_to 4506
   65.1520  -72.0797  -11.9900 LP  0  0  0  0  0  0  0  0  0  0  0  0  # atno 9710 bound_to 4506
   62.9437  -68.9958  -10.2570 LP  0  0  0  0  0  0  0  0  0  0  0  0  # atno 9711 bound_to 4508
   62.4001  -69.7978  -11.5714 LP  0  0  0  0  0  0  0  0  0  0  0  0  # atno 9712 bound_to 4508
   62.6651  -72.5373   -8.2998 LP  0  0  0  0  0  0  0  0  0  0  0  0  # atno 9713 bound_to 4510
   62.4954  -71.5998   -6.9736 LP  0  0  0  0  0  0  0  0  0  0  0  0  # atno 9714 bound_to 4510

$$$$
