C12H12ClN5O4S|Chlorsulfuron|mol|1|dock39
  -GOLD-   2292219383D 1   1.00000     0.00000
 
 35 36  0  0  0  0  0  0  0  0  1 V2000
   69.3010  -74.5628  -13.8885 C   0  0  0  0  0  0  0  0  0  0  0  0
   68.0887  -74.6880  -14.7751 C   0  0  0  0  0  0  0  0  0  0  0  0
   66.9474  -74.1287  -14.4140 N   0  0  0  0  0  0  0  0  0  0  0  0
   65.8759  -74.2376  -15.1945 C   0  0  0  0  0  0  0  0  0  0  0  0
   65.9547  -74.9093  -16.3373 N   0  0  0  0  0  0  0  0  0  0  0  0
   67.1028  -75.4696  -16.6965 C   0  0  0  0  0  0  0  0  0  0  0  0
   68.1711  -75.3526  -15.9149 N   0  0  0  0  0  0  0  0  0  0  0  0
   67.1868  -76.1552  -17.8600 O   0  0  0  0  0  0  0  0  0  0  0  0
   67.8584  -75.3058  -18.7924 C   0  0  0  0  0  0  0  0  0  0  0  0
   64.6793  -73.6515  -14.8155 N   0  0  0  0  0  0  0  0  0  0  0  0
   63.5328  -74.3570  -14.8814 C   0  0  0  0  0  0  0  0  0  0  0  0
   63.5487  -75.5076  -15.2734 O   0  0  0  0  0  0  0  0  0  0  0  0
   62.3685  -73.7868  -14.5127 N   0  0  0  0  0  0  0  0  0  0  0  0
   60.9445  -74.6085  -14.7117 S   0  0  0  0  0  0  0  0  0  0  0  0
   61.2046  -75.9398  -14.2885 O   0  0  0  0  0  0  0  0  0  0  0  0
   59.9328  -73.7608  -14.1851 O   0  0  0  0  0  0  0  0  0  0  0  0
   60.6317  -74.7088  -16.4428 C   0  0  0  0  0  0  0  0  0  0  0  0
   61.6788  -74.8986  -17.3244 C   0  0  0  0  0  0  0  0  0  0  0  0
   61.4335  -74.9772  -18.6828 C   0  0  0  0  0  0  0  0  0  0  0  0
   60.1411  -74.8658  -19.1598 C   0  0  0  0  0  0  0  0  0  0  0  0
   59.0928  -74.6755  -18.2790 C   0  0  0  0  0  0  0  0  0  0  0  0
   59.3369  -74.6032  -16.9192 C   0  0  0  0  0  0  0  0  0  0  0  0
   58.0210  -74.3649  -15.8123 Cl  0  0  0  0  0  0  0  0  0  0  0  0
   69.3249  -75.3958  -13.1859 H   0  0  0  0  0  0  0  0  0  0  0  0
   70.2024  -74.5783  -14.5012 H   0  0  0  0  0  0  0  0  0  0  0  0
   69.2524  -73.6238  -13.3372 H   0  0  0  0  0  0  0  0  0  0  0  0
   67.9500  -75.8183  -19.7500 H   0  0  0  0  0  0  0  0  0  0  0  0
   67.2862  -74.3876  -18.9249 H   0  0  0  0  0  0  0  0  0  0  0  0
   68.8513  -75.0637  -18.4134 H   0  0  0  0  0  0  0  0  0  0  0  0
   64.6665  -72.7334  -14.5027 H   0  0  0  0  0  0  0  0  0  0  0  0
   62.3647  -72.8952  -14.1308 H   0  0  0  0  0  0  0  0  0  0  0  0
   62.6890  -74.9850  -16.9523 H   0  0  0  0  0  0  0  0  0  0  0  0
   62.2521  -75.1255  -19.3715 H   0  0  0  0  0  0  0  0  0  0  0  0
   59.9501  -74.9270  -20.2211 H   0  0  0  0  0  0  0  0  0  0  0  0
   58.0831  -74.5876  -18.6519 H   0  0  0  0  0  0  0  0  0  0  0  0
  1  2  1  0  0  0  0
  2  3  2  0  0  0  0
  3  4  1  0  0  0  0
  4  5  2  0  0  0  0
  5  6  1  0  0  0  0
  6  7  2  0  0  0  0
  2  7  1  0  0  0  0
  6  8  1  0  0  0  0
  8  9  1  0  0  0  0
  4 10  1  0  0  0  0
 10 11  1  0  0  0  0
 11 12  2  0  0  0  0
 11 13  1  0  0  0  0
 13 14  1  0  0  0  0
 14 15  2  0  0  0  0
 14 16  2  0  0  0  0
 14 17  1  0  0  0  0
 17 18  2  0  0  0  0
 18 19  1  0  0  0  0
 19 20  2  0  0  0  0
 20 21  1  0  0  0  0
 21 22  2  0  0  0  0
 17 22  1  0  0  0  0
 22 23  1  0  0  0  0
  1 24  1  0  0  0  0
  1 25  1  0  0  0  0
  1 26  1  0  0  0  0
  9 27  1  0  0  0  0
  9 28  1  0  0  0  0
  9 29  1  0  0  0  0
 10 30  1  0  0  0  0
 13 31  1  0  0  0  0
 18 32  1  0  0  0  0
 19 33  1  0  0  0  0
 20 34  1  0  0  0  0
 21 35  1  0  0  0  0
M  END
> <Gold.Version>
2021.2.0

> <Gold.Id.Protein>
5K6Q|5K6Q_protein|mol2

> <Gold.PLP.Fitness>
33.3463

> <Gold.PLP.PLP>
-26.8362

> <Gold.PLP.part.hbond>
-4.8010

> <Gold.PLP.part.metal>
0.0000

> <Gold.PLP.part.buried>
-2.7667

> <Gold.PLP.part.nonpolar>
-19.7955

> <Gold.PLP.part.repulsive>
0.7001

> <Gold.PLP.ligand.clash>
0.0000

> <Gold.PLP.ligand.torsion>
2.3022

> <Gold.PLP.Chemscore.Hbond>
2.6150

> <Gold.PLP.Chemscore.CHOScore>
0.0000

> <Gold.PLP.Chemscore.Metal>
0.0000

> <Gold.Chemscore.Hbonds>
donor molecule, donor type, donor heavy atom, donor atom, acceptor molecule, acceptor atom, score
      L1  H    10    30       P1  3262  0.36
      P1  H  2204  6935       L1    16  0.88
      P1  H  2205  6946       L1    16  0.38
      P1  H  4718  9584       L1     8  1.00

> <Gold.PLP.Chemscore.Internal.Correction>
3.2693

> <Gold.Protein.RotatedTorsions>
[ 6459 1704 1703 1701 ] final   98.15 input   60.01 | X-H torsion
[ 6656 1882 1881 1878 ] final  161.54 input   60.00 | X-H torsion
[ 7002 2256 2255 2252 ] final  -44.76 input   60.00 | X-H torsion
[ 6986 2270 2269 2268 ] final   26.89 input   59.99 | X-H torsion
[ 9089 4362 4361 4358 ] final -141.20 input   60.01 | X-H torsion
[ 9191 4472 4471 4469 ] final   45.06 input   60.00 | X-H torsion
[ 9201 4474 4473 4471 ] final  -92.38 input   60.00 | X-H torsion
[ 9219 4506 4505 4504 ] final  -86.04 input   60.00 | X-H torsion
[ 9220 4508 4507 4505 ] final    9.80 input   60.00 | X-H torsion
[ 9214 4510 4509 4507 ] final -121.82 input   60.00 | X-H torsion

> <Gold.Protein.ActiveResidues>
 TYR305  THR331  LEU332  MET333  LEU349  GLY350  MET351  HIS352  GLY353  ASN358 
 VAL372  ARG373  PHE374  ASP375  ASP376  ARG377  VAL378  THR379  GLY380  LYS381 
 LEU382  PHE385  ASN404  GLY508  GLY509  TRP574  ILE651  PRO652  SER653  GLY654 
 GLY655  FAD702  HOH839  HOH865  HOH881  HOH913  HOH945  HOH958  HOH960  HOH966 
 HOH968 

> <Gold.Protein.RotatedAtoms>
   60.8166  -74.3548   -3.0337 H   0  0  0  0  0  0  0  0  0  0  0  0  # atno 6459 bound_to 1704
   61.6876  -68.0051   -5.4794 H   0  0  0  0  0  0  0  0  0  0  0  0  # atno 6656 bound_to 1882
   63.3514  -90.4651   -2.1974 H   0  0  0  0  0  0  0  0  0  0  0  0  # atno 6986 bound_to 2270
   62.9016  -89.5257   -0.9080 H   0  0  0  0  0  0  0  0  0  0  0  0  # atno 6987 bound_to 2270
   61.7449  -90.2182   -1.8723 H   0  0  0  0  0  0  0  0  0  0  0  0  # atno 6988 bound_to 2270
   61.8447  -79.5267   -5.9791 H   0  0  0  0  0  0  0  0  0  0  0  0  # atno 7002 bound_to 2256
   68.6237  -81.2750  -12.6556 H   0  0  0  0  0  0  0  0  0  0  0  0  # atno 9089 bound_to 4362
   52.8990  -69.4967   -6.8256 H   0  0  0  0  0  0  0  0  0  0  0  0  # atno 9191 bound_to 4472
   51.1747  -67.5179   -9.3202 H   0  0  0  0  0  0  0  0  0  0  0  0  # atno 9201 bound_to 4474
   62.1588  -71.9419   -7.3355 H   0  0  0  0  0  0  0  0  0  0  0  0  # atno 9214 bound_to 4510
   63.9193  -71.8775  -12.1452 H   0  0  0  0  0  0  0  0  0  0  0  0  # atno 9219 bound_to 4506
   63.9203  -69.8212  -11.3905 H   0  0  0  0  0  0  0  0  0  0  0  0  # atno 9220 bound_to 4508
   60.7917  -72.8356   -3.6164 LP  0  0  0  0  0  0  0  0  0  0  0  0  # atno 9615 bound_to 1704
   59.4187  -73.7185   -3.5714 LP  0  0  0  0  0  0  0  0  0  0  0  0  # atno 9616 bound_to 1704
   62.9336  -67.0190   -5.1284 LP  0  0  0  0  0  0  0  0  0  0  0  0  # atno 9619 bound_to 1882
   61.7921  -67.3295   -4.0027 LP  0  0  0  0  0  0  0  0  0  0  0  0  # atno 9620 bound_to 1882
   60.3529  -80.0941   -5.6616 LP  0  0  0  0  0  0  0  0  0  0  0  0  # atno 9664 bound_to 2256
   61.6564  -81.0560   -5.4560 LP  0  0  0  0  0  0  0  0  0  0  0  0  # atno 9665 bound_to 2256
   70.1933  -81.4241  -12.2527 LP  0  0  0  0  0  0  0  0  0  0  0  0  # atno 9690 bound_to 4362
   69.1173  -80.8602  -11.1615 LP  0  0  0  0  0  0  0  0  0  0  0  0  # atno 9691 bound_to 4362
   53.7438  -70.2056   -8.0222 LP  0  0  0  0  0  0  0  0  0  0  0  0  # atno 9698 bound_to 4472
   52.2522  -69.6088   -8.3146 LP  0  0  0  0  0  0  0  0  0  0  0  0  # atno 9699 bound_to 4472
   50.6695  -67.1634   -7.8146 LP  0  0  0  0  0  0  0  0  0  0  0  0  # atno 9700 bound_to 4474
   51.3160  -68.6275   -8.1385 LP  0  0  0  0  0  0  0  0  0  0  0  0  # atno 9701 bound_to 4474
   63.9243  -73.3015  -11.3576 LP  0  0  0  0  0  0  0  0  0  0  0  0  # atno 9709 bound_to 4506
   65.3336  -72.5592  -11.7172 LP  0  0  0  0  0  0  0  0  0  0  0  0  # atno 9710 bound_to 4506
   63.1208  -68.9985  -10.2364 LP  0  0  0  0  0  0  0  0  0  0  0  0  # atno 9711 bound_to 4508
   62.2979  -69.7120  -11.4532 LP  0  0  0  0  0  0  0  0  0  0  0  0  # atno 9712 bound_to 4508
   63.7145  -71.4835   -7.2015 LP  0  0  0  0  0  0  0  0  0  0  0  0  # atno 9713 bound_to 4510
   63.2554  -72.4810   -8.4102 LP  0  0  0  0  0  0  0  0  0  0  0  0  # atno 9714 bound_to 4510

$$$$
