C12H12ClN5O4S|Chlorsulfuron|mol|1|dock50
  -GOLD-   2292219383D 1   1.00000     0.00000
 
 35 36  0  0  0  0  0  0  0  0  1 V2000
   65.5148  -76.5878  -18.4335 C   0  0  0  0  0  0  0  0  0  0  0  0
   65.6044  -76.2540  -16.9666 C   0  0  0  0  0  0  0  0  0  0  0  0
   64.5006  -76.1043  -16.2560 N   0  0  0  0  0  0  0  0  0  0  0  0
   64.5768  -75.8097  -14.9612 C   0  0  0  0  0  0  0  0  0  0  0  0
   65.7638  -75.6663  -14.3835 N   0  0  0  0  0  0  0  0  0  0  0  0
   66.8701  -75.8175  -15.1006 C   0  0  0  0  0  0  0  0  0  0  0  0
   66.7873  -76.1171  -16.3926 N   0  0  0  0  0  0  0  0  0  0  0  0
   68.0814  -75.6716  -14.5155 O   0  0  0  0  0  0  0  0  0  0  0  0
   68.1937  -74.2988  -14.1349 C   0  0  0  0  0  0  0  0  0  0  0  0
   63.4194  -75.6522  -14.2164 N   0  0  0  0  0  0  0  0  0  0  0  0
   62.2885  -75.2235  -14.8111 C   0  0  0  0  0  0  0  0  0  0  0  0
   62.2841  -74.9748  -16.0011 O   0  0  0  0  0  0  0  0  0  0  0  0
   61.1624  -75.0702  -14.0866 N   0  0  0  0  0  0  0  0  0  0  0  0
   59.8081  -74.4247  -14.7877 S   0  0  0  0  0  0  0  0  0  0  0  0
   58.7279  -74.7711  -13.9320 O   0  0  0  0  0  0  0  0  0  0  0  0
   60.1637  -73.1030  -15.1697 O   0  0  0  0  0  0  0  0  0  0  0  0
   59.5263  -75.2981  -16.2918 C   0  0  0  0  0  0  0  0  0  0  0  0
   59.1729  -74.6082  -17.4358 C   0  0  0  0  0  0  0  0  0  0  0  0
   58.9516  -75.2934  -18.6161 C   0  0  0  0  0  0  0  0  0  0  0  0
   59.0834  -76.6688  -18.6525 C   0  0  0  0  0  0  0  0  0  0  0  0
   59.4365  -77.3602  -17.5087 C   0  0  0  0  0  0  0  0  0  0  0  0
   59.6643  -76.6745  -16.3290 C   0  0  0  0  0  0  0  0  0  0  0  0
   60.1084  -77.5419  -14.8923 Cl  0  0  0  0  0  0  0  0  0  0  0  0
   65.4827  -75.6662  -19.0146 H   0  0  0  0  0  0  0  0  0  0  0  0
   66.3867  -77.1722  -18.7271 H   0  0  0  0  0  0  0  0  0  0  0  0
   64.6100  -77.1664  -18.6198 H   0  0  0  0  0  0  0  0  0  0  0  0
   69.1588  -74.1321  -13.6566 H   0  0  0  0  0  0  0  0  0  0  0  0
   68.1134  -73.6685  -15.0206 H   0  0  0  0  0  0  0  0  0  0  0  0
   67.3944  -74.0486  -13.4373 H   0  0  0  0  0  0  0  0  0  0  0  0
   63.4228  -75.8506  -13.2669 H   0  0  0  0  0  0  0  0  0  0  0  0
   61.1452  -75.3382  -13.1545 H   0  0  0  0  0  0  0  0  0  0  0  0
   59.0690  -73.5336  -17.4078 H   0  0  0  0  0  0  0  0  0  0  0  0
   58.6754  -74.7538  -19.5099 H   0  0  0  0  0  0  0  0  0  0  0  0
   58.9102  -77.2036  -19.5747 H   0  0  0  0  0  0  0  0  0  0  0  0
   59.5387  -78.4349  -17.5370 H   0  0  0  0  0  0  0  0  0  0  0  0
  1  2  1  0  0  0  0
  2  3  2  0  0  0  0
  3  4  1  0  0  0  0
  4  5  2  0  0  0  0
  5  6  1  0  0  0  0
  6  7  2  0  0  0  0
  2  7  1  0  0  0  0
  6  8  1  0  0  0  0
  8  9  1  0  0  0  0
  4 10  1  0  0  0  0
 10 11  1  0  0  0  0
 11 12  2  0  0  0  0
 11 13  1  0  0  0  0
 13 14  1  0  0  0  0
 14 15  2  0  0  0  0
 14 16  2  0  0  0  0
 14 17  1  0  0  0  0
 17 18  2  0  0  0  0
 18 19  1  0  0  0  0
 19 20  2  0  0  0  0
 20 21  1  0  0  0  0
 21 22  2  0  0  0  0
 17 22  1  0  0  0  0
 22 23  1  0  0  0  0
  1 24  1  0  0  0  0
  1 25  1  0  0  0  0
  1 26  1  0  0  0  0
  9 27  1  0  0  0  0
  9 28  1  0  0  0  0
  9 29  1  0  0  0  0
 10 30  1  0  0  0  0
 13 31  1  0  0  0  0
 18 32  1  0  0  0  0
 19 33  1  0  0  0  0
 20 34  1  0  0  0  0
 21 35  1  0  0  0  0
M  END
> <Gold.Version>
2021.2.0

> <Gold.Id.Protein>
5K6Q|5K6Q_protein|mol2

> <Gold.PLP.Fitness>
27.3297

> <Gold.PLP.PLP>
-20.5078

> <Gold.PLP.part.hbond>
-3.7027

> <Gold.PLP.part.metal>
0.0000

> <Gold.PLP.part.buried>
-5.6202

> <Gold.PLP.part.nonpolar>
-12.5422

> <Gold.PLP.part.repulsive>
1.7252

> <Gold.PLP.ligand.clash>
0.0000

> <Gold.PLP.ligand.torsion>
1.8986

> <Gold.PLP.Chemscore.Hbond>
2.4500

> <Gold.PLP.Chemscore.CHOScore>
0.0000

> <Gold.PLP.Chemscore.Metal>
0.0000

> <Gold.Chemscore.Hbonds>
donor molecule, donor type, donor heavy atom, donor atom, acceptor molecule, acceptor atom, score
      L1  H    13    31       P1  2223  0.98
      P1  H  2204  6935       L1    15  0.86
      P1  H  2240  6967       L1     8  0.61

> <Gold.PLP.Chemscore.Internal.Correction>
3.2693

> <Gold.Protein.RotatedTorsions>
[ 6459 1704 1703 1701 ] final   73.39 input   60.01 | X-H torsion
[ 6656 1882 1881 1878 ] final   -3.54 input   60.00 | X-H torsion
[ 7002 2256 2255 2252 ] final  157.83 input   60.00 | X-H torsion
[ 6986 2270 2269 2268 ] final  -84.08 input   59.99 | X-H torsion
[ 9089 4362 4361 4358 ] final   13.76 input   60.01 | X-H torsion
[ 9191 4472 4471 4469 ] final  -51.56 input   60.00 | X-H torsion
[ 9201 4474 4473 4471 ] final  139.38 input   60.00 | X-H torsion
[ 9219 4506 4505 4504 ] final -146.67 input   60.00 | X-H torsion
[ 9220 4508 4507 4505 ] final -119.95 input   60.00 | X-H torsion
[ 9214 4510 4509 4507 ] final -166.89 input   60.00 | X-H torsion

> <Gold.Protein.ActiveResidues>
 TYR305  THR331  LEU332  MET333  LEU349  GLY350  MET351  HIS352  GLY353  ASN358 
 VAL372  ARG373  PHE374  ASP375  ASP376  ARG377  VAL378  THR379  GLY380  LYS381 
 LEU382  PHE385  ASN404  GLY508  GLY509  TRP574  ILE651  PRO652  SER653  GLY654 
 GLY655  FAD702  HOH839  HOH865  HOH881  HOH913  HOH945  HOH958  HOH960  HOH966 
 HOH968 

> <Gold.Protein.RotatedAtoms>
   61.1028  -74.0768   -3.0786 H   0  0  0  0  0  0  0  0  0  0  0  0  # atno 6459 bound_to 1704
   62.7409  -66.8751   -4.4494 H   0  0  0  0  0  0  0  0  0  0  0  0  # atno 6656 bound_to 1882
   61.7972  -90.3014   -1.9864 H   0  0  0  0  0  0  0  0  0  0  0  0  # atno 6986 bound_to 2270
   63.4478  -90.3975   -2.1031 H   0  0  0  0  0  0  0  0  0  0  0  0  # atno 6987 bound_to 2270
   62.7532  -89.5099   -0.8878 H   0  0  0  0  0  0  0  0  0  0  0  0  # atno 6988 bound_to 2270
   60.4833  -80.6549   -5.4839 H   0  0  0  0  0  0  0  0  0  0  0  0  # atno 7002 bound_to 2256
   69.6698  -80.9726  -11.1874 H   0  0  0  0  0  0  0  0  0  0  0  0  # atno 9089 bound_to 4362
   53.8226  -70.1396   -7.6556 H   0  0  0  0  0  0  0  0  0  0  0  0  # atno 9191 bound_to 4472
   50.6900  -67.2643   -7.7270 H   0  0  0  0  0  0  0  0  0  0  0  0  # atno 9201 bound_to 4474
   62.6042  -71.5445   -6.9371 H   0  0  0  0  0  0  0  0  0  0  0  0  # atno 9214 bound_to 4510
   63.4556  -72.6049  -11.7588 H   0  0  0  0  0  0  0  0  0  0  0  0  # atno 9219 bound_to 4506
   62.9624  -69.0008  -10.2577 H   0  0  0  0  0  0  0  0  0  0  0  0  # atno 9220 bound_to 4508
   60.4116  -72.7541   -3.7273 LP  0  0  0  0  0  0  0  0  0  0  0  0  # atno 9615 bound_to 1704
   59.5107  -74.0799   -3.4153 LP  0  0  0  0  0  0  0  0  0  0  0  0  # atno 9616 bound_to 1704
   61.3821  -67.7694   -4.4037 LP  0  0  0  0  0  0  0  0  0  0  0  0  # atno 9619 bound_to 1882
   62.2830  -67.7169   -5.7646 LP  0  0  0  0  0  0  0  0  0  0  0  0  # atno 9620 bound_to 1882
   62.1047  -80.6845   -5.6190 LP  0  0  0  0  0  0  0  0  0  0  0  0  # atno 9664 bound_to 2256
   61.2756  -79.3294   -5.9972 LP  0  0  0  0  0  0  0  0  0  0  0  0  # atno 9665 bound_to 2256
   68.3880  -81.0710  -12.1851 LP  0  0  0  0  0  0  0  0  0  0  0  0  # atno 9690 bound_to 4362
   69.8692  -81.5178  -12.7077 LP  0  0  0  0  0  0  0  0  0  0  0  0  # atno 9691 bound_to 4362
   52.5045  -69.7844   -8.5413 LP  0  0  0  0  0  0  0  0  0  0  0  0  # atno 9698 bound_to 4472
   52.5614  -69.3826   -6.9596 LP  0  0  0  0  0  0  0  0  0  0  0  0  # atno 9699 bound_to 4472
   51.3549  -68.6479   -8.2666 LP  0  0  0  0  0  0  0  0  0  0  0  0  # atno 9700 bound_to 4474
   51.1187  -67.3984   -9.2910 LP  0  0  0  0  0  0  0  0  0  0  0  0  # atno 9701 bound_to 4474
   64.8755  -73.2778  -11.3355 LP  0  0  0  0  0  0  0  0  0  0  0  0  # atno 9709 bound_to 4506
   64.8493  -71.8505  -12.1284 LP  0  0  0  0  0  0  0  0  0  0  0  0  # atno 9710 bound_to 4506
   62.3885  -69.7895  -11.5602 LP  0  0  0  0  0  0  0  0  0  0  0  0  # atno 9711 bound_to 4508
   63.9949  -69.7471  -11.2701 LP  0  0  0  0  0  0  0  0  0  0  0  0  # atno 9712 bound_to 4508
   63.9672  -71.8459   -7.7734 LP  0  0  0  0  0  0  0  0  0  0  0  0  # atno 9713 bound_to 4510
   62.5542  -72.5188   -8.2396 LP  0  0  0  0  0  0  0  0  0  0  0  0  # atno 9714 bound_to 4510

$$$$
