C12H12ClN5O4S|Chlorsulfuron|mol|1|dock44
  -GOLD-   2292219383D 1   1.00000     0.00000
 
 35 36  0  0  0  0  0  0  0  0  1 V2000
   57.9731  -77.8816  -16.8301 C   0  0  0  0  0  0  0  0  0  0  0  0
   58.9696  -77.2225  -15.9115 C   0  0  0  0  0  0  0  0  0  0  0  0
   60.0550  -77.8769  -15.5381 N   0  0  0  0  0  0  0  0  0  0  0  0
   60.9362  -77.2976  -14.7274 C   0  0  0  0  0  0  0  0  0  0  0  0
   60.7236  -76.0607  -14.2938 N   0  0  0  0  0  0  0  0  0  0  0  0
   59.6323  -75.4068  -14.6711 C   0  0  0  0  0  0  0  0  0  0  0  0
   58.7585  -75.9891  -15.4855 N   0  0  0  0  0  0  0  0  0  0  0  0
   59.4120  -74.1464  -14.2308 O   0  0  0  0  0  0  0  0  0  0  0  0
   59.3450  -73.3106  -15.3879 C   0  0  0  0  0  0  0  0  0  0  0  0
   62.0740  -77.9841  -14.3357 N   0  0  0  0  0  0  0  0  0  0  0  0
   62.9406  -78.4369  -15.2633 C   0  0  0  0  0  0  0  0  0  0  0  0
   62.7239  -78.2432  -16.4436 O   0  0  0  0  0  0  0  0  0  0  0  0
   64.0475  -79.1049  -14.8822 N   0  0  0  0  0  0  0  0  0  0  0  0
   65.0468  -79.7704  -16.0228 S   0  0  0  0  0  0  0  0  0  0  0  0
   65.3334  -78.7255  -16.9421 O   0  0  0  0  0  0  0  0  0  0  0  0
   66.0148  -80.5178  -15.2991 O   0  0  0  0  0  0  0  0  0  0  0  0
   64.1030  -80.9548  -16.9234 C   0  0  0  0  0  0  0  0  0  0  0  0
   64.1681  -80.9855  -18.3034 C   0  0  0  0  0  0  0  0  0  0  0  0
   63.4275  -81.9147  -19.0102 C   0  0  0  0  0  0  0  0  0  0  0  0
   62.6212  -82.8132  -18.3371 C   0  0  0  0  0  0  0  0  0  0  0  0
   62.5548  -82.7832  -16.9567 C   0  0  0  0  0  0  0  0  0  0  0  0
   63.3006  -81.8579  -16.2486 C   0  0  0  0  0  0  0  0  0  0  0  0
   63.2182  -81.8200  -14.5150 Cl  0  0  0  0  0  0  0  0  0  0  0  0
   57.2284  -78.4127  -16.2373 H   0  0  0  0  0  0  0  0  0  0  0  0
   57.4802  -77.1218  -17.4366 H   0  0  0  0  0  0  0  0  0  0  0  0
   58.4899  -78.5870  -17.4807 H   0  0  0  0  0  0  0  0  0  0  0  0
   59.1677  -72.2796  -15.0816 H   0  0  0  0  0  0  0  0  0  0  0  0
   60.2861  -73.3705  -15.9345 H   0  0  0  0  0  0  0  0  0  0  0  0
   58.5300  -73.6440  -16.0303 H   0  0  0  0  0  0  0  0  0  0  0  0
   62.2470  -78.1388  -13.3938 H   0  0  0  0  0  0  0  0  0  0  0  0
   64.2589  -79.1956  -13.9399 H   0  0  0  0  0  0  0  0  0  0  0  0
   64.7974  -80.2833  -18.8300 H   0  0  0  0  0  0  0  0  0  0  0  0
   63.4787  -81.9384  -20.0887 H   0  0  0  0  0  0  0  0  0  0  0  0
   62.0427  -83.5387  -18.8898 H   0  0  0  0  0  0  0  0  0  0  0  0
   61.9242  -83.4848  -16.4309 H   0  0  0  0  0  0  0  0  0  0  0  0
  1  2  1  0  0  0  0
  2  3  2  0  0  0  0
  3  4  1  0  0  0  0
  4  5  2  0  0  0  0
  5  6  1  0  0  0  0
  6  7  2  0  0  0  0
  2  7  1  0  0  0  0
  6  8  1  0  0  0  0
  8  9  1  0  0  0  0
  4 10  1  0  0  0  0
 10 11  1  0  0  0  0
 11 12  2  0  0  0  0
 11 13  1  0  0  0  0
 13 14  1  0  0  0  0
 14 15  2  0  0  0  0
 14 16  2  0  0  0  0
 14 17  1  0  0  0  0
 17 18  2  0  0  0  0
 18 19  1  0  0  0  0
 19 20  2  0  0  0  0
 20 21  1  0  0  0  0
 21 22  2  0  0  0  0
 17 22  1  0  0  0  0
 22 23  1  0  0  0  0
  1 24  1  0  0  0  0
  1 25  1  0  0  0  0
  1 26  1  0  0  0  0
  9 27  1  0  0  0  0
  9 28  1  0  0  0  0
  9 29  1  0  0  0  0
 10 30  1  0  0  0  0
 13 31  1  0  0  0  0
 18 32  1  0  0  0  0
 19 33  1  0  0  0  0
 20 34  1  0  0  0  0
 21 35  1  0  0  0  0
M  END
> <Gold.Version>
2021.2.0

> <Gold.Id.Protein>
5K6Q|5K6Q_protein|mol2

> <Gold.PLP.Fitness>
28.8787

> <Gold.PLP.PLP>
-16.1087

> <Gold.PLP.part.hbond>
-7.6860

> <Gold.PLP.part.metal>
0.0000

> <Gold.PLP.part.buried>
-4.1738

> <Gold.PLP.part.nonpolar>
-5.1256

> <Gold.PLP.part.repulsive>
0.4853

> <Gold.PLP.ligand.clash>
0.0000

> <Gold.PLP.ligand.torsion>
2.1887

> <Gold.PLP.Chemscore.Hbond>
4.6260

> <Gold.PLP.Chemscore.CHOScore>
0.0000

> <Gold.PLP.Chemscore.Metal>
0.0000

> <Gold.Chemscore.Hbonds>
donor molecule, donor type, donor heavy atom, donor atom, acceptor molecule, acceptor atom, score
      L1  H    10    30       P1  2231  0.85
      L1  H    13    31       P1  2232  1.00
      P1  H  2204  6935       L1     8  0.98
      P1  H  2243  6968       L1    16  0.80
      P1  H  4724  9546       L1    16  1.00

> <Gold.PLP.Chemscore.Internal.Correction>
3.2693

> <Gold.Protein.RotatedTorsions>
[ 6459 1704 1703 1701 ] final  124.28 input   60.01 | X-H torsion
[ 6656 1882 1881 1878 ] final   78.52 input   60.00 | X-H torsion
[ 7002 2256 2255 2252 ] final  142.76 input   60.00 | X-H torsion
[ 6986 2270 2269 2268 ] final   33.81 input   59.99 | X-H torsion
[ 9089 4362 4361 4358 ] final -144.91 input   60.01 | X-H torsion
[ 9191 4472 4471 4469 ] final -128.40 input   60.00 | X-H torsion
[ 9201 4474 4473 4471 ] final  171.00 input   60.00 | X-H torsion
[ 9219 4506 4505 4504 ] final  115.19 input   60.00 | X-H torsion
[ 9220 4508 4507 4505 ] final  -49.84 input   60.00 | X-H torsion
[ 9214 4510 4509 4507 ] final  143.15 input   60.00 | X-H torsion

> <Gold.Protein.ActiveResidues>
 TYR305  THR331  LEU332  MET333  LEU349  GLY350  MET351  HIS352  GLY353  ASN358 
 VAL372  ARG373  PHE374  ASP375  ASP376  ARG377  VAL378  THR379  GLY380  LYS381 
 LEU382  PHE385  ASN404  GLY508  GLY509  TRP574  ILE651  PRO652  SER653  GLY654 
 GLY655  FAD702  HOH839  HOH865  HOH881  HOH913  HOH945  HOH958  HOH960  HOH966 
 HOH968 

> <Gold.Protein.RotatedAtoms>
   60.4216  -74.5044   -3.0603 H   0  0  0  0  0  0  0  0  0  0  0  0  # atno 6459 bound_to 1704
   62.7325  -67.3440   -5.5857 H   0  0  0  0  0  0  0  0  0  0  0  0  # atno 6656 bound_to 1882
   63.4268  -90.4141   -2.1265 H   0  0  0  0  0  0  0  0  0  0  0  0  # atno 6986 bound_to 2270
   62.7882  -89.5125   -0.8908 H   0  0  0  0  0  0  0  0  0  0  0  0  # atno 6987 bound_to 2270
   61.7829  -90.2824   -1.9604 H   0  0  0  0  0  0  0  0  0  0  0  0  # atno 6988 bound_to 2270
   60.6345  -80.8421   -5.4349 H   0  0  0  0  0  0  0  0  0  0  0  0  # atno 7002 bound_to 2256
   68.6651  -81.2958  -12.6948 H   0  0  0  0  0  0  0  0  0  0  0  0  # atno 9089 bound_to 4362
   53.1289  -70.0773   -8.5876 H   0  0  0  0  0  0  0  0  0  0  0  0  # atno 9191 bound_to 4472
   50.6732  -66.9635   -8.1386 H   0  0  0  0  0  0  0  0  0  0  0  0  # atno 9201 bound_to 4474
   63.3801  -71.4001   -6.9865 H   0  0  0  0  0  0  0  0  0  0  0  0  # atno 9214 bound_to 4510
   64.5386  -73.3831  -11.2868 H   0  0  0  0  0  0  0  0  0  0  0  0  # atno 9219 bound_to 4506
   63.9290  -69.3156  -10.6086 H   0  0  0  0  0  0  0  0  0  0  0  0  # atno 9220 bound_to 4508
   61.1023  -73.0809   -3.4581 LP  0  0  0  0  0  0  0  0  0  0  0  0  # atno 9615 bound_to 1704
   59.5060  -73.3225   -3.7029 LP  0  0  0  0  0  0  0  0  0  0  0  0  # atno 9616 bound_to 1704
   62.2956  -67.0109   -4.0539 LP  0  0  0  0  0  0  0  0  0  0  0  0  # atno 9619 bound_to 1882
   61.3779  -68.0032   -4.9702 LP  0  0  0  0  0  0  0  0  0  0  0  0  # atno 9620 bound_to 1882
   62.1963  -80.4691   -5.6988 LP  0  0  0  0  0  0  0  0  0  0  0  0  # atno 9664 bound_to 2256
   61.0317  -79.3563   -5.9668 LP  0  0  0  0  0  0  0  0  0  0  0  0  # atno 9665 bound_to 2256
   70.2100  -81.4082  -12.1962 LP  0  0  0  0  0  0  0  0  0  0  0  0  # atno 9690 bound_to 4362
   69.0589  -80.8552  -11.1786 LP  0  0  0  0  0  0  0  0  0  0  0  0  # atno 9691 bound_to 4362
   52.1479  -69.3454   -7.5151 LP  0  0  0  0  0  0  0  0  0  0  0  0  # atno 9698 bound_to 4472
   53.6166  -69.8843   -7.0471 LP  0  0  0  0  0  0  0  0  0  0  0  0  # atno 9699 bound_to 4472
   51.1789  -68.4761   -7.8156 LP  0  0  0  0  0  0  0  0  0  0  0  0  # atno 9700 bound_to 4474
   51.3116  -67.8731   -9.3274 LP  0  0  0  0  0  0  0  0  0  0  0  0  # atno 9701 bound_to 4474
   65.1230  -72.0471  -12.0091 LP  0  0  0  0  0  0  0  0  0  0  0  0  # atno 9709 bound_to 4506
   63.5112  -72.2973  -11.9301 LP  0  0  0  0  0  0  0  0  0  0  0  0  # atno 9710 bound_to 4506
   62.3067  -69.1973  -10.6573 LP  0  0  0  0  0  0  0  0  0  0  0  0  # atno 9711 bound_to 4508
   63.1033  -70.0223  -11.8197 LP  0  0  0  0  0  0  0  0  0  0  0  0  # atno 9712 bound_to 4508
   63.6159  -72.3211   -8.3072 LP  0  0  0  0  0  0  0  0  0  0  0  0  # atno 9713 bound_to 4510
   62.1242  -72.1891   -7.6560 LP  0  0  0  0  0  0  0  0  0  0  0  0  # atno 9714 bound_to 4510

$$$$
