C12H12ClN5O4S|Chlorsulfuron|mol|1|dock34
  -GOLD-   2292219383D 1   1.00000     0.00000
 
 35 36  0  0  0  0  0  0  0  0  1 V2000
   63.5152  -74.6009  -18.1064 C   0  0  0  0  0  0  0  0  0  0  0  0
   62.6703  -75.2267  -17.0267 C   0  0  0  0  0  0  0  0  0  0  0  0
   63.1633  -76.2047  -16.2877 N   0  0  0  0  0  0  0  0  0  0  0  0
   62.4197  -76.7588  -15.3341 C   0  0  0  0  0  0  0  0  0  0  0  0
   61.1812  -76.3277  -15.1258 N   0  0  0  0  0  0  0  0  0  0  0  0
   60.6897  -75.3452  -15.8701 C   0  0  0  0  0  0  0  0  0  0  0  0
   61.4394  -74.7921  -16.8176 N   0  0  0  0  0  0  0  0  0  0  0  0
   59.4279  -74.9036  -15.6610 O   0  0  0  0  0  0  0  0  0  0  0  0
   59.5249  -73.5164  -15.3319 C   0  0  0  0  0  0  0  0  0  0  0  0
   62.9367  -77.7846  -14.5597 N   0  0  0  0  0  0  0  0  0  0  0  0
   63.6417  -78.7766  -15.1388 C   0  0  0  0  0  0  0  0  0  0  0  0
   63.8240  -78.7712  -16.3407 O   0  0  0  0  0  0  0  0  0  0  0  0
   64.1446  -79.7747  -14.3855 N   0  0  0  0  0  0  0  0  0  0  0  0
   64.9015  -81.0576  -15.1090 S   0  0  0  0  0  0  0  0  0  0  0  0
   66.1111  -80.5397  -15.6455 O   0  0  0  0  0  0  0  0  0  0  0  0
   64.8055  -82.1334  -14.1856 O   0  0  0  0  0  0  0  0  0  0  0  0
   63.9255  -81.5302  -16.4977 C   0  0  0  0  0  0  0  0  0  0  0  0
   64.4760  -81.5194  -17.7652 C   0  0  0  0  0  0  0  0  0  0  0  0
   63.7103  -81.8901  -18.8550 C   0  0  0  0  0  0  0  0  0  0  0  0
   62.3936  -82.2714  -18.6776 C   0  0  0  0  0  0  0  0  0  0  0  0
   61.8416  -82.2822  -17.4103 C   0  0  0  0  0  0  0  0  0  0  0  0
   62.6092  -81.9176  -16.3187 C   0  0  0  0  0  0  0  0  0  0  0  0
   61.9169  -81.9314  -14.7268 Cl  0  0  0  0  0  0  0  0  0  0  0  0
   63.3656  -75.1388  -19.0425 H   0  0  0  0  0  0  0  0  0  0  0  0
   63.2253  -73.5582  -18.2361 H   0  0  0  0  0  0  0  0  0  0  0  0
   64.5660  -74.6531  -17.8214 H   0  0  0  0  0  0  0  0  0  0  0  0
   58.5274  -73.1146  -15.1539 H   0  0  0  0  0  0  0  0  0  0  0  0
   60.1302  -73.3977  -14.4332 H   0  0  0  0  0  0  0  0  0  0  0  0
   59.9912  -72.9788  -16.1576 H   0  0  0  0  0  0  0  0  0  0  0  0
   62.7912  -77.7890  -13.6007 H   0  0  0  0  0  0  0  0  0  0  0  0
   64.0632  -79.7414  -13.4195 H   0  0  0  0  0  0  0  0  0  0  0  0
   65.5046  -81.2209  -17.9045 H   0  0  0  0  0  0  0  0  0  0  0  0
   64.1409  -81.8816  -19.8454 H   0  0  0  0  0  0  0  0  0  0  0  0
   61.7958  -82.5606  -19.5293 H   0  0  0  0  0  0  0  0  0  0  0  0
   60.8126  -82.5793  -17.2719 H   0  0  0  0  0  0  0  0  0  0  0  0
  1  2  1  0  0  0  0
  2  3  2  0  0  0  0
  3  4  1  0  0  0  0
  4  5  2  0  0  0  0
  5  6  1  0  0  0  0
  6  7  2  0  0  0  0
  2  7  1  0  0  0  0
  6  8  1  0  0  0  0
  8  9  1  0  0  0  0
  4 10  1  0  0  0  0
 10 11  1  0  0  0  0
 11 12  2  0  0  0  0
 11 13  1  0  0  0  0
 13 14  1  0  0  0  0
 14 15  2  0  0  0  0
 14 16  2  0  0  0  0
 14 17  1  0  0  0  0
 17 18  2  0  0  0  0
 18 19  1  0  0  0  0
 19 20  2  0  0  0  0
 20 21  1  0  0  0  0
 21 22  2  0  0  0  0
 17 22  1  0  0  0  0
 22 23  1  0  0  0  0
  1 24  1  0  0  0  0
  1 25  1  0  0  0  0
  1 26  1  0  0  0  0
  9 27  1  0  0  0  0
  9 28  1  0  0  0  0
  9 29  1  0  0  0  0
 10 30  1  0  0  0  0
 13 31  1  0  0  0  0
 18 32  1  0  0  0  0
 19 33  1  0  0  0  0
 20 34  1  0  0  0  0
 21 35  1  0  0  0  0
M  END
> <Gold.Version>
2021.2.0

> <Gold.Id.Protein>
5K6Q|5K6Q_protein|mol2

> <Gold.PLP.Fitness>
20.1035

> <Gold.PLP.PLP>
-13.9929

> <Gold.PLP.part.hbond>
-6.3223

> <Gold.PLP.part.metal>
0.0000

> <Gold.PLP.part.buried>
-1.9602

> <Gold.PLP.part.nonpolar>
-8.1339

> <Gold.PLP.part.repulsive>
0.5672

> <Gold.PLP.ligand.clash>
0.0000

> <Gold.PLP.ligand.torsion>
1.9731

> <Gold.PLP.Chemscore.Hbond>
2.2625

> <Gold.PLP.Chemscore.CHOScore>
0.0000

> <Gold.PLP.Chemscore.Metal>
0.0000

> <Gold.Chemscore.Hbonds>
donor molecule, donor type, donor heavy atom, donor atom, acceptor molecule, acceptor atom, score
      L1  H    10    30       P1  2231  0.75
      L1  H    13    31       P1  2232  0.83
      P1  H  2243  6968       L1    15  0.44
      P1  H  4726  9604       L1    16  0.24

> <Gold.PLP.Chemscore.Internal.Correction>
3.2693

> <Gold.Protein.RotatedTorsions>
[ 6459 1704 1703 1701 ] final -114.58 input   60.01 | X-H torsion
[ 6656 1882 1881 1878 ] final  118.00 input   60.00 | X-H torsion
[ 7002 2256 2255 2252 ] final  173.04 input   60.00 | X-H torsion
[ 6986 2270 2269 2268 ] final   55.76 input   59.99 | X-H torsion
[ 9089 4362 4361 4358 ] final -118.61 input   60.01 | X-H torsion
[ 9191 4472 4471 4469 ] final   86.67 input   60.00 | X-H torsion
[ 9201 4474 4473 4471 ] final -101.29 input   60.00 | X-H torsion
[ 9219 4506 4505 4504 ] final   89.25 input   60.00 | X-H torsion
[ 9220 4508 4507 4505 ] final    8.59 input   60.00 | X-H torsion
[ 9214 4510 4509 4507 ] final  127.62 input   60.00 | X-H torsion

> <Gold.Protein.ActiveResidues>
 TYR305  THR331  LEU332  MET333  LEU349  GLY350  MET351  HIS352  GLY353  ASN358 
 VAL372  ARG373  PHE374  ASP375  ASP376  ARG377  VAL378  THR379  GLY380  LYS381 
 LEU382  PHE385  ASN404  GLY508  GLY509  TRP574  ILE651  PRO652  SER653  GLY654 
 GLY655  FAD702  HOH839  HOH865  HOH881  HOH913  HOH945  HOH958  HOH960  HOH966 
 HOH968 

> <Gold.Protein.RotatedAtoms>
   59.5193  -73.3078   -3.7031 H   0  0  0  0  0  0  0  0  0  0  0  0  # atno 6459 bound_to 1704
   62.2622  -67.7308   -5.7567 H   0  0  0  0  0  0  0  0  0  0  0  0  # atno 6656 bound_to 1882
   63.5887  -90.2230   -1.8619 H   0  0  0  0  0  0  0  0  0  0  0  0  # atno 6986 bound_to 2270
   62.4246  -89.5245   -0.9107 H   0  0  0  0  0  0  0  0  0  0  0  0  # atno 6987 bound_to 2270
   61.9847  -90.4616   -2.2052 H   0  0  0  0  0  0  0  0  0  0  0  0  # atno 6988 bound_to 2270
   60.3867  -80.4359   -5.5483 H   0  0  0  0  0  0  0  0  0  0  0  0  # atno 7002 bound_to 2256
   68.4394  -81.1442  -12.3669 H   0  0  0  0  0  0  0  0  0  0  0  0  # atno 9089 bound_to 4362
   52.3479  -69.3381   -7.1623 H   0  0  0  0  0  0  0  0  0  0  0  0  # atno 9191 bound_to 4472
   51.1159  -67.3910   -9.2807 H   0  0  0  0  0  0  0  0  0  0  0  0  # atno 9201 bound_to 4474
   63.5967  -71.4410   -7.1106 H   0  0  0  0  0  0  0  0  0  0  0  0  # atno 9214 bound_to 4510
   64.9280  -73.2392  -11.3523 H   0  0  0  0  0  0  0  0  0  0  0  0  # atno 9219 bound_to 4506
   63.9301  -69.8125  -11.3756 H   0  0  0  0  0  0  0  0  0  0  0  0  # atno 9220 bound_to 4508
   60.4043  -74.5139   -3.0628 LP  0  0  0  0  0  0  0  0  0  0  0  0  # atno 9615 bound_to 1704
   61.1127  -73.0946   -3.4508 LP  0  0  0  0  0  0  0  0  0  0  0  0  # atno 9616 bound_to 1704
   62.7575  -66.8686   -4.4685 LP  0  0  0  0  0  0  0  0  0  0  0  0  # atno 9619 bound_to 1882
   61.3895  -67.7562   -4.3834 LP  0  0  0  0  0  0  0  0  0  0  0  0  # atno 9620 bound_to 1882
   61.9551  -80.8697   -5.5442 LP  0  0  0  0  0  0  0  0  0  0  0  0  # atno 9664 bound_to 2256
   61.5225  -79.3647   -6.0072 LP  0  0  0  0  0  0  0  0  0  0  0  0  # atno 9665 bound_to 2256
   70.0151  -81.4975  -12.5677 LP  0  0  0  0  0  0  0  0  0  0  0  0  # atno 9690 bound_to 4362
   69.4811  -80.9186  -11.1372 LP  0  0  0  0  0  0  0  0  0  0  0  0  # atno 9691 bound_to 4362
   53.7947  -70.0529   -7.3721 LP  0  0  0  0  0  0  0  0  0  0  0  0  # atno 9698 bound_to 4472
   52.7563  -69.9213   -8.6256 LP  0  0  0  0  0  0  0  0  0  0  0  0  # atno 9699 bound_to 4472
   50.6869  -67.2699   -7.7157 LP  0  0  0  0  0  0  0  0  0  0  0  0  # atno 9700 bound_to 4474
   51.3578  -68.6488   -8.2771 LP  0  0  0  0  0  0  0  0  0  0  0  0  # atno 9701 bound_to 4474
   64.7895  -71.8247  -12.1449 LP  0  0  0  0  0  0  0  0  0  0  0  0  # atno 9709 bound_to 4506
   63.4526  -72.6648  -11.7284 LP  0  0  0  0  0  0  0  0  0  0  0  0  # atno 9710 bound_to 4506
   63.1009  -68.9973  -10.2373 LP  0  0  0  0  0  0  0  0  0  0  0  0  # atno 9711 bound_to 4508
   62.3080  -69.7220  -11.4672 LP  0  0  0  0  0  0  0  0  0  0  0  0  # atno 9712 bound_to 4508
   63.4003  -72.4305   -8.3875 LP  0  0  0  0  0  0  0  0  0  0  0  0  # atno 9713 bound_to 4510
   62.1216  -72.0384   -7.4506 LP  0  0  0  0  0  0  0  0  0  0  0  0  # atno 9714 bound_to 4510

$$$$
