C12H12ClN5O4S|Chlorsulfuron|mol|1|dock38
  -GOLD-   2292219383D 1   1.00000     0.00000
 
 35 36  0  0  0  0  0  0  0  0  1 V2000
   66.6904  -73.4001  -14.1488 C   0  0  0  0  0  0  0  0  0  0  0  0
   65.5700  -74.1868  -14.7789 C   0  0  0  0  0  0  0  0  0  0  0  0
   64.6684  -74.7777  -14.0147 N   0  0  0  0  0  0  0  0  0  0  0  0
   63.6785  -75.4727  -14.5682 C   0  0  0  0  0  0  0  0  0  0  0  0
   63.5975  -75.5719  -15.8898 N   0  0  0  0  0  0  0  0  0  0  0  0
   64.5048  -74.9770  -16.6539 C   0  0  0  0  0  0  0  0  0  0  0  0
   65.4883  -74.2797  -16.0951 N   0  0  0  0  0  0  0  0  0  0  0  0
   64.4258  -75.0764  -18.0010 O   0  0  0  0  0  0  0  0  0  0  0  0
   63.1430  -74.5718  -18.3779 C   0  0  0  0  0  0  0  0  0  0  0  0
   62.7337  -76.0925  -13.7668 N   0  0  0  0  0  0  0  0  0  0  0  0
   61.4235  -75.9859  -14.0642 C   0  0  0  0  0  0  0  0  0  0  0  0
   61.0708  -75.3458  -15.0357 O   0  0  0  0  0  0  0  0  0  0  0  0
   60.5041  -76.5888  -13.2845 N   0  0  0  0  0  0  0  0  0  0  0  0
   58.8906  -76.3551  -13.5749 S   0  0  0  0  0  0  0  0  0  0  0  0
   58.2158  -76.8532  -12.4279 O   0  0  0  0  0  0  0  0  0  0  0  0
   58.7778  -75.0342  -14.0866 O   0  0  0  0  0  0  0  0  0  0  0  0
   58.4339  -77.4225  -14.9003 C   0  0  0  0  0  0  0  0  0  0  0  0
   58.4891  -76.9680  -16.2041 C   0  0  0  0  0  0  0  0  0  0  0  0
   58.1307  -77.8053  -17.2442 C   0  0  0  0  0  0  0  0  0  0  0  0
   57.7165  -79.0974  -16.9806 C   0  0  0  0  0  0  0  0  0  0  0  0
   57.6604  -79.5531  -15.6768 C   0  0  0  0  0  0  0  0  0  0  0  0
   58.0251  -78.7178  -14.6361 C   0  0  0  0  0  0  0  0  0  0  0  0
   57.9555  -79.2896  -12.9985 Cl  0  0  0  0  0  0  0  0  0  0  0  0
   67.5401  -74.0585  -13.9687 H   0  0  0  0  0  0  0  0  0  0  0  0
   66.9905  -72.5946  -14.8191 H   0  0  0  0  0  0  0  0  0  0  0  0
   66.3508  -72.9782  -13.2028 H   0  0  0  0  0  0  0  0  0  0  0  0
   63.0328  -74.6318  -19.4606 H   0  0  0  0  0  0  0  0  0  0  0  0
   62.3642  -75.1657  -17.8998 H   0  0  0  0  0  0  0  0  0  0  0  0
   63.0538  -73.5328  -18.0606 H   0  0  0  0  0  0  0  0  0  0  0  0
   63.0150  -76.6032  -12.9916 H   0  0  0  0  0  0  0  0  0  0  0  0
   60.7877  -77.1597  -12.5534 H   0  0  0  0  0  0  0  0  0  0  0  0
   58.8120  -75.9582  -16.4107 H   0  0  0  0  0  0  0  0  0  0  0  0
   58.1740  -77.4497  -18.2631 H   0  0  0  0  0  0  0  0  0  0  0  0
   57.4363  -79.7510  -17.7935 H   0  0  0  0  0  0  0  0  0  0  0  0
   57.3360  -80.5624  -15.4708 H   0  0  0  0  0  0  0  0  0  0  0  0
  1  2  1  0  0  0  0
  2  3  2  0  0  0  0
  3  4  1  0  0  0  0
  4  5  2  0  0  0  0
  5  6  1  0  0  0  0
  6  7  2  0  0  0  0
  2  7  1  0  0  0  0
  6  8  1  0  0  0  0
  8  9  1  0  0  0  0
  4 10  1  0  0  0  0
 10 11  1  0  0  0  0
 11 12  2  0  0  0  0
 11 13  1  0  0  0  0
 13 14  1  0  0  0  0
 14 15  2  0  0  0  0
 14 16  2  0  0  0  0
 14 17  1  0  0  0  0
 17 18  2  0  0  0  0
 18 19  1  0  0  0  0
 19 20  2  0  0  0  0
 20 21  1  0  0  0  0
 21 22  2  0  0  0  0
 17 22  1  0  0  0  0
 22 23  1  0  0  0  0
  1 24  1  0  0  0  0
  1 25  1  0  0  0  0
  1 26  1  0  0  0  0
  9 27  1  0  0  0  0
  9 28  1  0  0  0  0
  9 29  1  0  0  0  0
 10 30  1  0  0  0  0
 13 31  1  0  0  0  0
 18 32  1  0  0  0  0
 19 33  1  0  0  0  0
 20 34  1  0  0  0  0
 21 35  1  0  0  0  0
M  END
> <Gold.Version>
2021.2.0

> <Gold.Id.Protein>
5K6Q|5K6Q_protein|mol2

> <Gold.PLP.Fitness>
27.2584

> <Gold.PLP.PLP>
-19.7209

> <Gold.PLP.part.hbond>
-5.0000

> <Gold.PLP.part.metal>
0.0000

> <Gold.PLP.part.buried>
-4.1206

> <Gold.PLP.part.nonpolar>
-12.6144

> <Gold.PLP.part.repulsive>
0.9062

> <Gold.PLP.ligand.clash>
0.0000

> <Gold.PLP.ligand.torsion>
1.8521

> <Gold.PLP.Chemscore.Hbond>
2.6575

> <Gold.PLP.Chemscore.CHOScore>
0.0000

> <Gold.PLP.Chemscore.Metal>
0.0000

> <Gold.Chemscore.Hbonds>
donor molecule, donor type, donor heavy atom, donor atom, acceptor molecule, acceptor atom, score
      L1  H    10    30       P1  2231  0.96
      L1  H    13    31       P1  2231  0.79
      P1  H  2204  6935       L1    16  0.91

> <Gold.PLP.Chemscore.Internal.Correction>
3.2693

> <Gold.Protein.RotatedTorsions>
[ 6459 1704 1703 1701 ] final    5.17 input   60.01 | X-H torsion
[ 6656 1882 1881 1878 ] final   35.95 input   60.00 | X-H torsion
[ 7002 2256 2255 2252 ] final  -77.03 input   60.00 | X-H torsion
[ 6986 2270 2269 2268 ] final   54.77 input   59.99 | X-H torsion
[ 9089 4362 4361 4358 ] final -127.39 input   60.01 | X-H torsion
[ 9191 4472 4471 4469 ] final -154.80 input   60.00 | X-H torsion
[ 9201 4474 4473 4471 ] final  -37.11 input   60.00 | X-H torsion
[ 9219 4506 4505 4504 ] final -165.79 input   60.00 | X-H torsion
[ 9220 4508 4507 4505 ] final   43.95 input   60.00 | X-H torsion
[ 9214 4510 4509 4507 ] final  -42.70 input   60.00 | X-H torsion

> <Gold.Protein.ActiveResidues>
 TYR305  THR331  LEU332  MET333  LEU349  GLY350  MET351  HIS352  GLY353  ASN358 
 VAL372  ARG373  PHE374  ASP375  ASP376  ARG377  VAL378  THR379  GLY380  LYS381 
 LEU382  PHE385  ASN404  GLY508  GLY509  TRP574  ILE651  PRO652  SER653  GLY654 
 GLY655  FAD702  HOH839  HOH865  HOH881  HOH913  HOH945  HOH958  HOH960  HOH966 
 HOH968 

> <Gold.Protein.RotatedAtoms>
   61.1046  -73.0947   -3.4499 H   0  0  0  0  0  0  0  0  0  0  0  0  # atno 6459 bound_to 1704
   62.9317  -66.9881   -5.0419 H   0  0  0  0  0  0  0  0  0  0  0  0  # atno 6656 bound_to 1882
   63.5841  -90.2323   -1.8747 H   0  0  0  0  0  0  0  0  0  0  0  0  # atno 6986 bound_to 2270
   62.4406  -89.5222   -0.9074 H   0  0  0  0  0  0  0  0  0  0  0  0  # atno 6987 bound_to 2270
   61.9732  -90.4546   -2.1957 H   0  0  0  0  0  0  0  0  0  0  0  0  # atno 6988 bound_to 2270
   61.3595  -79.3399   -5.9986 H   0  0  0  0  0  0  0  0  0  0  0  0  # atno 7002 bound_to 2256
   68.4963  -81.1953  -12.4881 H   0  0  0  0  0  0  0  0  0  0  0  0  # atno 9089 bound_to 4362
   52.7374  -69.9077   -8.6163 H   0  0  0  0  0  0  0  0  0  0  0  0  # atno 9191 bound_to 4472
   51.4278  -68.3155   -9.0881 H   0  0  0  0  0  0  0  0  0  0  0  0  # atno 9201 bound_to 4474
   62.6156  -72.5243   -8.2705 H   0  0  0  0  0  0  0  0  0  0  0  0  # atno 9214 bound_to 4510
   63.5121  -72.8713  -11.6089 H   0  0  0  0  0  0  0  0  0  0  0  0  # atno 9219 bound_to 4506
   63.5167  -69.9976  -11.7193 H   0  0  0  0  0  0  0  0  0  0  0  0  # atno 9220 bound_to 4508
   59.5122  -73.3098   -3.7064 LP  0  0  0  0  0  0  0  0  0  0  0  0  # atno 9615 bound_to 1704
   60.4082  -74.5134   -3.0622 LP  0  0  0  0  0  0  0  0  0  0  0  0  # atno 9616 bound_to 1704
   61.7235  -67.3856   -4.0268 LP  0  0  0  0  0  0  0  0  0  0  0  0  # atno 9619 bound_to 1882
   61.7495  -67.9870   -5.5448 LP  0  0  0  0  0  0  0  0  0  0  0  0  # atno 9620 bound_to 1882
   60.4378  -80.5868   -5.5050 LP  0  0  0  0  0  0  0  0  0  0  0  0  # atno 9664 bound_to 2256
   62.0601  -80.7515   -5.5928 LP  0  0  0  0  0  0  0  0  0  0  0  0  # atno 9665 bound_to 2256
   70.0991  -81.4742  -12.4528 LP  0  0  0  0  0  0  0  0  0  0  0  0  # atno 9690 bound_to 4362
   69.3398  -80.8904  -11.1302 LP  0  0  0  0  0  0  0  0  0  0  0  0  # atno 9691 bound_to 4362
   52.3582  -69.3391   -7.1395 LP  0  0  0  0  0  0  0  0  0  0  0  0  # atno 9698 bound_to 4472
   53.8005  -70.0614   -7.3939 LP  0  0  0  0  0  0  0  0  0  0  0  0  # atno 9699 bound_to 4472
   50.7669  -66.8971   -8.6419 LP  0  0  0  0  0  0  0  0  0  0  0  0  # atno 9700 bound_to 4474
   50.9637  -68.0905   -7.5448 LP  0  0  0  0  0  0  0  0  0  0  0  0  # atno 9701 bound_to 4474
   65.1135  -73.0963  -11.4273 LP  0  0  0  0  0  0  0  0  0  0  0  0  # atno 9709 bound_to 4506
   64.5544  -71.7636  -12.1875 LP  0  0  0  0  0  0  0  0  0  0  0  0  # atno 9710 bound_to 4506
   63.6475  -69.1222  -10.3538 LP  0  0  0  0  0  0  0  0  0  0  0  0  # atno 9711 bound_to 4508
   62.1778  -69.4106  -11.0046 LP  0  0  0  0  0  0  0  0  0  0  0  0  # atno 9712 bound_to 4508
   62.5432  -71.5729   -6.9522 LP  0  0  0  0  0  0  0  0  0  0  0  0  # atno 9713 bound_to 4510
   63.9667  -71.8051   -7.7179 LP  0  0  0  0  0  0  0  0  0  0  0  0  # atno 9714 bound_to 4510

$$$$
