C12H12ClN5O4S|Chlorsulfuron|mol|1|dock46
  -GOLD-   2292219383D 1   1.00000     0.00000
 
 35 36  0  0  0  0  0  0  0  0  1 V2000
   67.3713  -73.9953  -13.7753 C   0  0  0  0  0  0  0  0  0  0  0  0
   66.4454  -74.9420  -14.4948 C   0  0  0  0  0  0  0  0  0  0  0  0
   65.3059  -75.3043  -13.9324 N   0  0  0  0  0  0  0  0  0  0  0  0
   64.4868  -76.1396  -14.5652 C   0  0  0  0  0  0  0  0  0  0  0  0
   64.8157  -76.6091  -15.7630 N   0  0  0  0  0  0  0  0  0  0  0  0
   65.9610  -76.2429  -16.3244 C   0  0  0  0  0  0  0  0  0  0  0  0
   66.7725  -75.4038  -15.6895 N   0  0  0  0  0  0  0  0  0  0  0  0
   66.2998  -76.7196  -17.5446 O   0  0  0  0  0  0  0  0  0  0  0  0
   66.4899  -75.5856  -18.3930 C   0  0  0  0  0  0  0  0  0  0  0  0
   63.2924  -76.5197  -13.9752 N   0  0  0  0  0  0  0  0  0  0  0  0
   62.1232  -76.0615  -14.4647 C   0  0  0  0  0  0  0  0  0  0  0  0
   62.1168  -75.3147  -15.4239 O   0  0  0  0  0  0  0  0  0  0  0  0
   60.9612  -76.4312  -13.8907 N   0  0  0  0  0  0  0  0  0  0  0  0
   59.5341  -75.7711  -14.4104 S   0  0  0  0  0  0  0  0  0  0  0  0
   58.5093  -76.6008  -13.8807 O   0  0  0  0  0  0  0  0  0  0  0  0
   59.6541  -74.3719  -14.1931 O   0  0  0  0  0  0  0  0  0  0  0  0
   59.4630  -75.9795  -16.1586 C   0  0  0  0  0  0  0  0  0  0  0  0
   59.6689  -74.8971  -16.9926 C   0  0  0  0  0  0  0  0  0  0  0  0
   59.6131  -75.0604  -18.3643 C   0  0  0  0  0  0  0  0  0  0  0  0
   59.3509  -76.3063  -18.9024 C   0  0  0  0  0  0  0  0  0  0  0  0
   59.1444  -77.3898  -18.0692 C   0  0  0  0  0  0  0  0  0  0  0  0
   59.2066  -77.2283  -16.6967 C   0  0  0  0  0  0  0  0  0  0  0  0
   58.9478  -78.5886  -15.6497 Cl  0  0  0  0  0  0  0  0  0  0  0  0
   68.0667  -74.5653  -13.1592 H   0  0  0  0  0  0  0  0  0  0  0  0
   67.9292  -73.4082  -14.5047 H   0  0  0  0  0  0  0  0  0  0  0  0
   66.7876  -73.3277  -13.1414 H   0  0  0  0  0  0  0  0  0  0  0  0
   66.7658  -75.9217  -19.3925 H   0  0  0  0  0  0  0  0  0  0  0  0
   65.5648  -75.0116  -18.4451 H   0  0  0  0  0  0  0  0  0  0  0  0
   67.2843  -74.9583  -17.9884 H   0  0  0  0  0  0  0  0  0  0  0  0
   63.2975  -77.1156  -13.2098 H   0  0  0  0  0  0  0  0  0  0  0  0
   60.9608  -77.0840  -13.1733 H   0  0  0  0  0  0  0  0  0  0  0  0
   59.8731  -73.9232  -16.5727 H   0  0  0  0  0  0  0  0  0  0  0  0
   59.7740  -74.2142  -19.0158 H   0  0  0  0  0  0  0  0  0  0  0  0
   59.3072  -76.4332  -19.9741 H   0  0  0  0  0  0  0  0  0  0  0  0
   58.9388  -78.3631  -18.4897 H   0  0  0  0  0  0  0  0  0  0  0  0
  1  2  1  0  0  0  0
  2  3  2  0  0  0  0
  3  4  1  0  0  0  0
  4  5  2  0  0  0  0
  5  6  1  0  0  0  0
  6  7  2  0  0  0  0
  2  7  1  0  0  0  0
  6  8  1  0  0  0  0
  8  9  1  0  0  0  0
  4 10  1  0  0  0  0
 10 11  1  0  0  0  0
 11 12  2  0  0  0  0
 11 13  1  0  0  0  0
 13 14  1  0  0  0  0
 14 15  2  0  0  0  0
 14 16  2  0  0  0  0
 14 17  1  0  0  0  0
 17 18  2  0  0  0  0
 18 19  1  0  0  0  0
 19 20  2  0  0  0  0
 20 21  1  0  0  0  0
 21 22  2  0  0  0  0
 17 22  1  0  0  0  0
 22 23  1  0  0  0  0
  1 24  1  0  0  0  0
  1 25  1  0  0  0  0
  1 26  1  0  0  0  0
  9 27  1  0  0  0  0
  9 28  1  0  0  0  0
  9 29  1  0  0  0  0
 10 30  1  0  0  0  0
 13 31  1  0  0  0  0
 18 32  1  0  0  0  0
 19 33  1  0  0  0  0
 20 34  1  0  0  0  0
 21 35  1  0  0  0  0
M  END
> <Gold.Version>
2021.2.0

> <Gold.Id.Protein>
5K6Q|5K6Q_protein|mol2

> <Gold.PLP.Fitness>
28.7046

> <Gold.PLP.PLP>
-21.1884

> <Gold.PLP.part.hbond>
-4.3944

> <Gold.PLP.part.metal>
0.0000

> <Gold.PLP.part.buried>
-5.3171

> <Gold.PLP.part.nonpolar>
-12.8727

> <Gold.PLP.part.repulsive>
0.4487

> <Gold.PLP.ligand.clash>
0.0000

> <Gold.PLP.ligand.torsion>
2.2128

> <Gold.PLP.Chemscore.Hbond>
2.8908

> <Gold.PLP.Chemscore.CHOScore>
0.0000

> <Gold.PLP.Chemscore.Metal>
0.0000

> <Gold.Chemscore.Hbonds>
donor molecule, donor type, donor heavy atom, donor atom, acceptor molecule, acceptor atom, score
      L1  H    10    30       P1  2231  0.98
      L1  H    13    31       P1  2231  0.10
      P1  H  2204  6935       L1    16  1.00
      P1  H  4718  9584       L1     8  0.82

> <Gold.PLP.Chemscore.Internal.Correction>
3.2693

> <Gold.Protein.RotatedTorsions>
[ 6459 1704 1703 1701 ] final  114.03 input   60.01 | X-H torsion
[ 6656 1882 1881 1878 ] final  -98.88 input   60.00 | X-H torsion
[ 7002 2256 2255 2252 ] final  -63.40 input   60.00 | X-H torsion
[ 6986 2270 2269 2268 ] final -170.86 input   59.99 | X-H torsion
[ 9089 4362 4361 4358 ] final  -58.67 input   60.01 | X-H torsion
[ 9191 4472 4471 4469 ] final  -39.26 input   60.00 | X-H torsion
[ 9201 4474 4473 4471 ] final  -84.27 input   60.00 | X-H torsion
[ 9219 4506 4505 4504 ] final   76.58 input   60.00 | X-H torsion
[ 9220 4508 4507 4505 ] final  178.85 input   60.00 | X-H torsion
[ 9214 4510 4509 4507 ] final -135.16 input   60.00 | X-H torsion

> <Gold.Protein.ActiveResidues>
 TYR305  THR331  LEU332  MET333  LEU349  GLY350  MET351  HIS352  GLY353  ASN358 
 VAL372  ARG373  PHE374  ASP375  ASP376  ARG377  VAL378  THR379  GLY380  LYS381 
 LEU382  PHE385  ASN404  GLY508  GLY509  TRP574  ILE651  PRO652  SER653  GLY654 
 GLY655  FAD702  HOH839  HOH865  HOH881  HOH913  HOH945  HOH958  HOH960  HOH966 
 HOH968 

> <Gold.Protein.RotatedAtoms>
   60.5832  -74.4659   -3.0408 H   0  0  0  0  0  0  0  0  0  0  0  0  # atno 6459 bound_to 1704
   61.5671  -67.5376   -4.1334 H   0  0  0  0  0  0  0  0  0  0  0  0  # atno 6656 bound_to 1882
   62.2170  -89.5710   -0.9769 H   0  0  0  0  0  0  0  0  0  0  0  0  # atno 6986 bound_to 2270
   62.1590  -90.5444   -2.3173 H   0  0  0  0  0  0  0  0  0  0  0  0  # atno 6987 bound_to 2270
   63.6226  -90.0935   -1.6833 H   0  0  0  0  0  0  0  0  0  0  0  0  # atno 6988 bound_to 2270
   61.5766  -79.3870   -6.0020 H   0  0  0  0  0  0  0  0  0  0  0  0  # atno 7002 bound_to 2256
   68.6087  -80.8788  -11.4860 H   0  0  0  0  0  0  0  0  0  0  0  0  # atno 9089 bound_to 4362
   53.8099  -70.0820   -7.4639 H   0  0  0  0  0  0  0  0  0  0  0  0  # atno 9191 bound_to 4472
   51.2258  -67.6389   -9.3375 H   0  0  0  0  0  0  0  0  0  0  0  0  # atno 9201 bound_to 4474
   62.2434  -71.8106   -7.1840 H   0  0  0  0  0  0  0  0  0  0  0  0  # atno 9214 bound_to 4510
   65.0830  -73.1174  -11.4141 H   0  0  0  0  0  0  0  0  0  0  0  0  # atno 9219 bound_to 4506
   62.2343  -69.2873  -10.8020 H   0  0  0  0  0  0  0  0  0  0  0  0  # atno 9220 bound_to 4508
   60.9960  -72.9676   -3.5234 LP  0  0  0  0  0  0  0  0  0  0  0  0  # atno 9615 bound_to 1704
   59.4495  -73.4746   -3.6572 LP  0  0  0  0  0  0  0  0  0  0  0  0  # atno 9616 bound_to 1704
   61.9416  -67.9096   -5.6727 LP  0  0  0  0  0  0  0  0  0  0  0  0  # atno 9619 bound_to 1882
   62.9054  -66.9097   -4.8138 LP  0  0  0  0  0  0  0  0  0  0  0  0  # atno 9620 bound_to 1882
   60.3664  -80.3838   -5.5663 LP  0  0  0  0  0  0  0  0  0  0  0  0  # atno 9664 bound_to 2256
   61.9128  -80.9070   -5.5281 LP  0  0  0  0  0  0  0  0  0  0  0  0  # atno 9665 bound_to 2256
   69.1398  -81.4534  -12.9129 LP  0  0  0  0  0  0  0  0  0  0  0  0  # atno 9690 bound_to 4362
   70.1859  -81.2298  -11.6791 LP  0  0  0  0  0  0  0  0  0  0  0  0  # atno 9691 bound_to 4362
   52.6707  -69.8778   -8.6079 LP  0  0  0  0  0  0  0  0  0  0  0  0  # atno 9698 bound_to 4472
   52.4079  -69.3472   -7.0860 LP  0  0  0  0  0  0  0  0  0  0  0  0  # atno 9699 bound_to 4472
   50.6617  -67.0789   -7.9176 LP  0  0  0  0  0  0  0  0  0  0  0  0  # atno 9700 bound_to 4474
   51.2723  -68.5901   -8.0181 LP  0  0  0  0  0  0  0  0  0  0  0  0  # atno 9701 bound_to 4474
   64.5925  -71.7696  -12.1828 LP  0  0  0  0  0  0  0  0  0  0  0  0  # atno 9709 bound_to 4506
   63.4934  -72.8425  -11.6283 LP  0  0  0  0  0  0  0  0  0  0  0  0  # atno 9710 bound_to 4506
   63.2878  -70.0254  -11.7987 LP  0  0  0  0  0  0  0  0  0  0  0  0  # atno 9711 bound_to 4508
   63.8288  -69.2227  -10.4835 LP  0  0  0  0  0  0  0  0  0  0  0  0  # atno 9712 bound_to 4508
   63.8432  -71.5682   -7.3573 LP  0  0  0  0  0  0  0  0  0  0  0  0  # atno 9713 bound_to 4510
   63.0416  -72.5285   -8.4070 LP  0  0  0  0  0  0  0  0  0  0  0  0  # atno 9714 bound_to 4510

$$$$
