C12H12ClN5O4S|Chlorsulfuron|mol|1|dock23
  -GOLD-   2292219383D 1   1.00000     0.00000
 
 35 36  0  0  0  0  0  0  0  0  1 V2000
   68.6953  -72.4392  -16.9828 C   0  0  0  0  0  0  0  0  0  0  0  0
   68.4106  -73.5599  -16.0162 C   0  0  0  0  0  0  0  0  0  0  0  0
   67.2697  -74.2220  -16.0920 N   0  0  0  0  0  0  0  0  0  0  0  0
   67.0159  -75.2115  -15.2402 C   0  0  0  0  0  0  0  0  0  0  0  0
   67.9107  -75.5331  -14.3133 N   0  0  0  0  0  0  0  0  0  0  0  0
   69.0554  -74.8658  -14.2403 C   0  0  0  0  0  0  0  0  0  0  0  0
   69.3053  -73.8818  -15.0977 N   0  0  0  0  0  0  0  0  0  0  0  0
   69.9694  -75.1903  -13.2968 O   0  0  0  0  0  0  0  0  0  0  0  0
   70.8840  -76.1045  -13.9049 C   0  0  0  0  0  0  0  0  0  0  0  0
   65.8195  -75.9053  -15.3196 N   0  0  0  0  0  0  0  0  0  0  0  0
   65.4975  -76.5663  -16.4492 C   0  0  0  0  0  0  0  0  0  0  0  0
   66.2569  -76.5536  -17.3983 O   0  0  0  0  0  0  0  0  0  0  0  0
   64.3334  -77.2412  -16.5265 N   0  0  0  0  0  0  0  0  0  0  0  0
   63.8790  -77.9474  -17.9538 S   0  0  0  0  0  0  0  0  0  0  0  0
   65.0469  -78.5777  -18.4617 O   0  0  0  0  0  0  0  0  0  0  0  0
   62.6436  -78.5971  -17.6870 O   0  0  0  0  0  0  0  0  0  0  0  0
   63.5033  -76.6513  -19.0867 C   0  0  0  0  0  0  0  0  0  0  0  0
   63.7127  -76.8343  -20.4404 C   0  0  0  0  0  0  0  0  0  0  0  0
   63.4181  -75.8174  -21.3295 C   0  0  0  0  0  0  0  0  0  0  0  0
   62.9144  -74.6170  -20.8650 C   0  0  0  0  0  0  0  0  0  0  0  0
   62.7049  -74.4325  -19.5112 C   0  0  0  0  0  0  0  0  0  0  0  0
   62.9934  -75.4520  -18.6217 C   0  0  0  0  0  0  0  0  0  0  0  0
   62.7300  -75.2213  -16.9214 Cl  0  0  0  0  0  0  0  0  0  0  0  0
   68.3321  -71.4995  -16.5668 H   0  0  0  0  0  0  0  0  0  0  0  0
   69.7697  -72.3702  -17.1529 H   0  0  0  0  0  0  0  0  0  0  0  0
   68.1898  -72.6375  -17.9280 H   0  0  0  0  0  0  0  0  0  0  0  0
   71.6430  -76.3958  -13.1789 H   0  0  0  0  0  0  0  0  0  0  0  0
   70.3436  -76.9896  -14.2407 H   0  0  0  0  0  0  0  0  0  0  0  0
   71.3628  -75.6254  -14.7589 H   0  0  0  0  0  0  0  0  0  0  0  0
   65.2134  -75.9154  -14.5622 H   0  0  0  0  0  0  0  0  0  0  0  0
   63.7619  -77.3133  -15.7461 H   0  0  0  0  0  0  0  0  0  0  0  0
   64.1070  -77.7719  -20.8038 H   0  0  0  0  0  0  0  0  0  0  0  0
   63.5819  -75.9609  -22.3873 H   0  0  0  0  0  0  0  0  0  0  0  0
   62.6847  -73.8228  -21.5601 H   0  0  0  0  0  0  0  0  0  0  0  0
   62.3120  -73.4943  -19.1483 H   0  0  0  0  0  0  0  0  0  0  0  0
  1  2  1  0  0  0  0
  2  3  2  0  0  0  0
  3  4  1  0  0  0  0
  4  5  2  0  0  0  0
  5  6  1  0  0  0  0
  6  7  2  0  0  0  0
  2  7  1  0  0  0  0
  6  8  1  0  0  0  0
  8  9  1  0  0  0  0
  4 10  1  0  0  0  0
 10 11  1  0  0  0  0
 11 12  2  0  0  0  0
 11 13  1  0  0  0  0
 13 14  1  0  0  0  0
 14 15  2  0  0  0  0
 14 16  2  0  0  0  0
 14 17  1  0  0  0  0
 17 18  2  0  0  0  0
 18 19  1  0  0  0  0
 19 20  2  0  0  0  0
 20 21  1  0  0  0  0
 21 22  2  0  0  0  0
 17 22  1  0  0  0  0
 22 23  1  0  0  0  0
  1 24  1  0  0  0  0
  1 25  1  0  0  0  0
  1 26  1  0  0  0  0
  9 27  1  0  0  0  0
  9 28  1  0  0  0  0
  9 29  1  0  0  0  0
 10 30  1  0  0  0  0
 13 31  1  0  0  0  0
 18 32  1  0  0  0  0
 19 33  1  0  0  0  0
 20 34  1  0  0  0  0
 21 35  1  0  0  0  0
M  END
> <Gold.Version>
2021.2.0

> <Gold.Id.Protein>
5K6Q|5K6Q_protein|mol2

> <Gold.PLP.Fitness>
29.1093

> <Gold.PLP.PLP>
-28.1889

> <Gold.PLP.part.hbond>
-2.7853

> <Gold.PLP.part.metal>
0.0000

> <Gold.PLP.part.buried>
-4.1048

> <Gold.PLP.part.nonpolar>
-22.2614

> <Gold.PLP.part.repulsive>
0.1691

> <Gold.PLP.ligand.clash>
0.0000

> <Gold.PLP.ligand.torsion>
2.6187

> <Gold.PLP.Chemscore.Hbond>
0.9615

> <Gold.PLP.Chemscore.CHOScore>
0.0000

> <Gold.PLP.Chemscore.Metal>
0.0000

> <Gold.Chemscore.Hbonds>
donor molecule, donor type, donor heavy atom, donor atom, acceptor molecule, acceptor atom, score
      P1  H  2240  6967       L1     5  0.43
      P1  H  4718  9584       L1    12  0.54

> <Gold.PLP.Chemscore.Internal.Correction>
3.2734

> <Gold.Protein.RotatedTorsions>
[ 6459 1704 1703 1701 ] final -156.05 input   60.01 | X-H torsion
[ 6656 1882 1881 1878 ] final  -82.77 input   60.00 | X-H torsion
[ 7002 2256 2255 2252 ] final   91.80 input   60.00 | X-H torsion
[ 6986 2270 2269 2268 ] final   53.25 input   59.99 | X-H torsion
[ 9089 4362 4361 4358 ] final -142.84 input   60.01 | X-H torsion
[ 9191 4472 4471 4469 ] final   51.60 input   60.00 | X-H torsion
[ 9201 4474 4473 4471 ] final -175.66 input   60.00 | X-H torsion
[ 9219 4506 4505 4504 ] final   62.19 input   60.00 | X-H torsion
[ 9220 4508 4507 4505 ] final  -31.52 input   60.00 | X-H torsion
[ 9214 4510 4509 4507 ] final   17.12 input   60.00 | X-H torsion

> <Gold.Protein.ActiveResidues>
 TYR305  THR331  LEU332  MET333  LEU349  GLY350  MET351  HIS352  GLY353  ASN358 
 VAL372  ARG373  PHE374  ASP375  ASP376  ARG377  VAL378  THR379  GLY380  LYS381 
 LEU382  PHE385  ASN404  GLY508  GLY509  TRP574  ILE651  PRO652  SER653  GLY654 
 GLY655  FAD702  HOH839  HOH865  HOH881  HOH913  HOH945  HOH958  HOH960  HOH966 
 HOH968 

> <Gold.Protein.RotatedAtoms>
   59.4569  -73.9293   -3.4811 H   0  0  0  0  0  0  0  0  0  0  0  0  # atno 6459 bound_to 1704
   61.7429  -67.3751   -4.0257 H   0  0  0  0  0  0  0  0  0  0  0  0  # atno 6656 bound_to 1882
   63.5767  -90.2465   -1.8943 H   0  0  0  0  0  0  0  0  0  0  0  0  # atno 6986 bound_to 2270
   62.4653  -89.5190   -0.9028 H   0  0  0  0  0  0  0  0  0  0  0  0  # atno 6987 bound_to 2270
   61.9560  -90.4436   -2.1807 H   0  0  0  0  0  0  0  0  0  0  0  0  # atno 6988 bound_to 2270
   61.3943  -81.1086   -5.4130 H   0  0  0  0  0  0  0  0  0  0  0  0  # atno 7002 bound_to 2256
   68.6417  -81.2842  -12.6733 H   0  0  0  0  0  0  0  0  0  0  0  0  # atno 9089 bound_to 4362
   52.8020  -69.4595   -6.8505 H   0  0  0  0  0  0  0  0  0  0  0  0  # atno 9191 bound_to 4472
   50.7011  -66.9055   -8.3465 H   0  0  0  0  0  0  0  0  0  0  0  0  # atno 9201 bound_to 4474
   63.5325  -72.3625   -8.3410 H   0  0  0  0  0  0  0  0  0  0  0  0  # atno 9214 bound_to 4510
   65.2178  -72.9477  -11.5033 H   0  0  0  0  0  0  0  0  0  0  0  0  # atno 9219 bound_to 4506
   64.0313  -69.4743  -10.8394 H   0  0  0  0  0  0  0  0  0  0  0  0  # atno 9220 bound_to 4508
   61.0004  -74.2135   -3.0510 LP  0  0  0  0  0  0  0  0  0  0  0  0  # atno 9615 bound_to 1704
   60.5794  -72.7692   -3.6862 LP  0  0  0  0  0  0  0  0  0  0  0  0  # atno 9616 bound_to 1704
   61.7339  -67.9920   -5.5315 LP  0  0  0  0  0  0  0  0  0  0  0  0  # atno 9619 bound_to 1882
   62.9360  -66.9908   -5.0634 LP  0  0  0  0  0  0  0  0  0  0  0  0  # atno 9620 bound_to 1882
   62.0396  -79.7100   -5.9377 LP  0  0  0  0  0  0  0  0  0  0  0  0  # atno 9664 bound_to 2256
   60.4233  -79.8470   -5.7500 LP  0  0  0  0  0  0  0  0  0  0  0  0  # atno 9665 bound_to 2256
   70.2012  -81.4172  -12.2278 LP  0  0  0  0  0  0  0  0  0  0  0  0  # atno 9690 bound_to 4362
   69.0913  -80.8578  -11.1686 LP  0  0  0  0  0  0  0  0  0  0  0  0  # atno 9691 bound_to 4362
   53.7812  -70.1954   -7.9219 LP  0  0  0  0  0  0  0  0  0  0  0  0  # atno 9698 bound_to 4472
   52.3124  -69.6565   -8.3898 LP  0  0  0  0  0  0  0  0  0  0  0  0  # atno 9699 bound_to 4472
   51.0898  -68.3352   -7.6735 LP  0  0  0  0  0  0  0  0  0  0  0  0  # atno 9700 bound_to 4474
   51.3727  -68.0725   -9.2602 LP  0  0  0  0  0  0  0  0  0  0  0  0  # atno 9701 bound_to 4474
   64.3575  -71.7548  -12.1997 LP  0  0  0  0  0  0  0  0  0  0  0  0  # atno 9709 bound_to 4506
   63.5926  -73.0282  -11.5215 LP  0  0  0  0  0  0  0  0  0  0  0  0  # atno 9710 bound_to 4506
   62.4987  -69.0843  -10.4559 LP  0  0  0  0  0  0  0  0  0  0  0  0  # atno 9711 bound_to 4508
   62.8083  -69.9755  -11.7887 LP  0  0  0  0  0  0  0  0  0  0  0  0  # atno 9712 bound_to 4508
   62.1151  -72.1319   -7.5755 LP  0  0  0  0  0  0  0  0  0  0  0  0  # atno 9713 bound_to 4510
   63.4715  -71.4091   -7.0236 LP  0  0  0  0  0  0  0  0  0  0  0  0  # atno 9714 bound_to 4510

$$$$
