C12H12ClN5O4S|Chlorsulfuron|mol|1|dock27
  -GOLD-   2292219383D 1   1.00000     0.00000
 
 35 36  0  0  0  0  0  0  0  0  1 V2000
   67.4188  -73.9946  -13.7647 C   0  0  0  0  0  0  0  0  0  0  0  0
   66.4865  -74.9282  -14.4930 C   0  0  0  0  0  0  0  0  0  0  0  0
   65.3496  -75.2966  -13.9296 N   0  0  0  0  0  0  0  0  0  0  0  0
   64.5249  -76.1204  -14.5702 C   0  0  0  0  0  0  0  0  0  0  0  0
   64.8458  -76.5724  -15.7768 N   0  0  0  0  0  0  0  0  0  0  0  0
   65.9885  -76.2001  -16.3393 C   0  0  0  0  0  0  0  0  0  0  0  0
   66.8056  -75.3725  -15.6965 N   0  0  0  0  0  0  0  0  0  0  0  0
   66.3191  -76.6590  -17.5686 O   0  0  0  0  0  0  0  0  0  0  0  0
   66.4749  -75.5138  -18.4089 C   0  0  0  0  0  0  0  0  0  0  0  0
   63.3331  -76.5069  -13.9790 N   0  0  0  0  0  0  0  0  0  0  0  0
   62.1614  -76.0495  -14.4632 C   0  0  0  0  0  0  0  0  0  0  0  0
   62.1503  -75.2979  -15.4185 O   0  0  0  0  0  0  0  0  0  0  0  0
   61.0018  -76.4254  -13.8880 N   0  0  0  0  0  0  0  0  0  0  0  0
   59.5716  -75.7667  -14.4007 S   0  0  0  0  0  0  0  0  0  0  0  0
   58.5496  -76.5832  -13.8458 O   0  0  0  0  0  0  0  0  0  0  0  0
   59.7006  -74.3649  -14.2068 O   0  0  0  0  0  0  0  0  0  0  0  0
   59.4783  -76.0020  -16.1445 C   0  0  0  0  0  0  0  0  0  0  0  0
   59.5965  -74.9195  -16.9952 C   0  0  0  0  0  0  0  0  0  0  0  0
   59.5232  -75.1039  -18.3635 C   0  0  0  0  0  0  0  0  0  0  0  0
   59.3314  -76.3710  -18.8813 C   0  0  0  0  0  0  0  0  0  0  0  0
   59.2126  -77.4547  -18.0313 C   0  0  0  0  0  0  0  0  0  0  0  0
   59.2923  -77.2716  -16.6624 C   0  0  0  0  0  0  0  0  0  0  0  0
   59.1438  -78.6321  -15.5943 Cl  0  0  0  0  0  0  0  0  0  0  0  0
   68.1165  -74.5754  -13.1614 H   0  0  0  0  0  0  0  0  0  0  0  0
   67.9738  -73.3977  -14.4884 H   0  0  0  0  0  0  0  0  0  0  0  0
   66.8402  -73.3355  -13.1173 H   0  0  0  0  0  0  0  0  0  0  0  0
   66.7431  -75.8353  -19.4153 H   0  0  0  0  0  0  0  0  0  0  0  0
   65.5381  -74.9577  -18.4426 H   0  0  0  0  0  0  0  0  0  0  0  0
   67.2626  -74.8747  -18.0097 H   0  0  0  0  0  0  0  0  0  0  0  0
   63.3419  -77.1066  -13.2166 H   0  0  0  0  0  0  0  0  0  0  0  0
   61.0051  -77.0818  -13.1739 H   0  0  0  0  0  0  0  0  0  0  0  0
   59.7457  -73.9290  -16.5912 H   0  0  0  0  0  0  0  0  0  0  0  0
   59.6156  -74.2576  -19.0280 H   0  0  0  0  0  0  0  0  0  0  0  0
   59.2740  -76.5145  -19.9502 H   0  0  0  0  0  0  0  0  0  0  0  0
   59.0619  -78.4446  -18.4359 H   0  0  0  0  0  0  0  0  0  0  0  0
  1  2  1  0  0  0  0
  2  3  2  0  0  0  0
  3  4  1  0  0  0  0
  4  5  2  0  0  0  0
  5  6  1  0  0  0  0
  6  7  2  0  0  0  0
  2  7  1  0  0  0  0
  6  8  1  0  0  0  0
  8  9  1  0  0  0  0
  4 10  1  0  0  0  0
 10 11  1  0  0  0  0
 11 12  2  0  0  0  0
 11 13  1  0  0  0  0
 13 14  1  0  0  0  0
 14 15  2  0  0  0  0
 14 16  2  0  0  0  0
 14 17  1  0  0  0  0
 17 18  2  0  0  0  0
 18 19  1  0  0  0  0
 19 20  2  0  0  0  0
 20 21  1  0  0  0  0
 21 22  2  0  0  0  0
 17 22  1  0  0  0  0
 22 23  1  0  0  0  0
  1 24  1  0  0  0  0
  1 25  1  0  0  0  0
  1 26  1  0  0  0  0
  9 27  1  0  0  0  0
  9 28  1  0  0  0  0
  9 29  1  0  0  0  0
 10 30  1  0  0  0  0
 13 31  1  0  0  0  0
 18 32  1  0  0  0  0
 19 33  1  0  0  0  0
 20 34  1  0  0  0  0
 21 35  1  0  0  0  0
M  END
> <Gold.Version>
2021.2.0

> <Gold.Id.Protein>
5K6Q|5K6Q_protein|mol2

> <Gold.PLP.Fitness>
28.6155

> <Gold.PLP.PLP>
-21.0376

> <Gold.PLP.part.hbond>
-4.4661

> <Gold.PLP.part.metal>
0.0000

> <Gold.PLP.part.buried>
-5.3325

> <Gold.PLP.part.nonpolar>
-12.7598

> <Gold.PLP.part.repulsive>
0.4544

> <Gold.PLP.ligand.clash>
0.0000

> <Gold.PLP.ligand.torsion>
2.2120

> <Gold.PLP.Chemscore.Hbond>
2.9109

> <Gold.PLP.Chemscore.CHOScore>
0.0000

> <Gold.PLP.Chemscore.Metal>
0.0000

> <Gold.Chemscore.Hbonds>
donor molecule, donor type, donor heavy atom, donor atom, acceptor molecule, acceptor atom, score
      L1  H    10    30       P1  2231  0.91
      L1  H    13    31       P1  2231  0.15
      P1  H  2204  6935       L1    16  1.00
      P1  H  4718  9584       L1     8  0.85

> <Gold.PLP.Chemscore.Internal.Correction>
3.2693

> <Gold.Protein.RotatedTorsions>
[ 6459 1704 1703 1701 ] final -150.00 input   60.01 | X-H torsion
[ 6656 1882 1881 1878 ] final   14.43 input   60.00 | X-H torsion
[ 7002 2256 2255 2252 ] final  -20.22 input   60.00 | X-H torsion
[ 6986 2270 2269 2268 ] final  172.46 input   59.99 | X-H torsion
[ 9089 4362 4361 4358 ] final -152.58 input   60.01 | X-H torsion
[ 9191 4472 4471 4469 ] final  171.18 input   60.00 | X-H torsion
[ 9201 4474 4473 4471 ] final -114.33 input   60.00 | X-H torsion
[ 9219 4506 4505 4504 ] final    2.39 input   60.00 | X-H torsion
[ 9220 4508 4507 4505 ] final   48.64 input   60.00 | X-H torsion
[ 9214 4510 4509 4507 ] final   57.31 input   60.00 | X-H torsion

> <Gold.Protein.ActiveResidues>
 TYR305  THR331  LEU332  MET333  LEU349  GLY350  MET351  HIS352  GLY353  ASN358 
 VAL372  ARG373  PHE374  ASP375  ASP376  ARG377  VAL378  THR379  GLY380  LYS381 
 LEU382  PHE385  ASN404  GLY508  GLY509  TRP574  ILE651  PRO652  SER653  GLY654 
 GLY655  FAD702  HOH839  HOH865  HOH881  HOH913  HOH945  HOH958  HOH960  HOH966 
 HOH968 

> <Gold.Protein.RotatedAtoms>
   59.4364  -73.8404   -3.5190 H   0  0  0  0  0  0  0  0  0  0  0  0  # atno 6459 bound_to 1704
   62.8708  -66.8941   -4.7108 H   0  0  0  0  0  0  0  0  0  0  0  0  # atno 6656 bound_to 1882
   62.4785  -89.5173   -0.9005 H   0  0  0  0  0  0  0  0  0  0  0  0  # atno 6986 bound_to 2270
   61.9474  -90.4378   -2.1726 H   0  0  0  0  0  0  0  0  0  0  0  0  # atno 6987 bound_to 2270
   63.5727  -90.2538   -1.9045 H   0  0  0  0  0  0  0  0  0  0  0  0  # atno 6988 bound_to 2270
   62.1046  -79.8187   -5.9048 H   0  0  0  0  0  0  0  0  0  0  0  0  # atno 7002 bound_to 2256
   68.7590  -81.3371  -12.7667 H   0  0  0  0  0  0  0  0  0  0  0  0  # atno 9089 bound_to 4362
   52.3138  -69.6521   -8.3811 H   0  0  0  0  0  0  0  0  0  0  0  0  # atno 9191 bound_to 4472
   51.0276  -67.2223   -9.1861 H   0  0  0  0  0  0  0  0  0  0  0  0  # atno 9201 bound_to 4474
   63.9182  -72.0018   -7.9735 H   0  0  0  0  0  0  0  0  0  0  0  0  # atno 9214 bound_to 4510
   65.1860  -72.1325  -11.9568 H   0  0  0  0  0  0  0  0  0  0  0  0  # atno 9219 bound_to 4506
   63.4464  -70.0095  -11.7475 H   0  0  0  0  0  0  0  0  0  0  0  0  # atno 9220 bound_to 4508
   60.9280  -74.2810   -3.0407 LP  0  0  0  0  0  0  0  0  0  0  0  0  # atno 9615 bound_to 1704
   60.6724  -72.7911   -3.6583 LP  0  0  0  0  0  0  0  0  0  0  0  0  # atno 9616 bound_to 1704
   61.5010  -67.6029   -4.1918 LP  0  0  0  0  0  0  0  0  0  0  0  0  # atno 9619 bound_to 1882
   62.0332  -67.8644   -5.7133 LP  0  0  0  0  0  0  0  0  0  0  0  0  # atno 9620 bound_to 1882
   60.4832  -79.7381   -5.7915 LP  0  0  0  0  0  0  0  0  0  0  0  0  # atno 9664 bound_to 2256
   61.2643  -81.1180   -5.4009 LP  0  0  0  0  0  0  0  0  0  0  0  0  # atno 9665 bound_to 2256
   70.2327  -81.3724  -12.0774 LP  0  0  0  0  0  0  0  0  0  0  0  0  # atno 9690 bound_to 4362
   68.9417  -80.8494  -11.2250 LP  0  0  0  0  0  0  0  0  0  0  0  0  # atno 9691 bound_to 4362
   52.8063  -69.4617   -6.8418 LP  0  0  0  0  0  0  0  0  0  0  0  0  # atno 9698 bound_to 4472
   53.7791  -70.1962   -7.9284 LP  0  0  0  0  0  0  0  0  0  0  0  0  # atno 9699 bound_to 4472
   50.7280  -67.4469   -7.6025 LP  0  0  0  0  0  0  0  0  0  0  0  0  # atno 9700 bound_to 4474
   51.4056  -68.6417   -8.4857 LP  0  0  0  0  0  0  0  0  0  0  0  0  # atno 9701 bound_to 4474
   63.5604  -72.2023  -11.9810 LP  0  0  0  0  0  0  0  0  0  0  0  0  # atno 9709 bound_to 4506
   64.4218  -73.4016  -11.2836 LP  0  0  0  0  0  0  0  0  0  0  0  0  # atno 9710 bound_to 4506
   63.7090  -69.1513  -10.3901 LP  0  0  0  0  0  0  0  0  0  0  0  0  # atno 9711 bound_to 4508
   62.1870  -69.3695  -10.9399 LP  0  0  0  0  0  0  0  0  0  0  0  0  # atno 9712 bound_to 4508
   62.3579  -72.4505   -8.0847 LP  0  0  0  0  0  0  0  0  0  0  0  0  # atno 9713 bound_to 4510
   62.8402  -71.4538   -6.8845 LP  0  0  0  0  0  0  0  0  0  0  0  0  # atno 9714 bound_to 4510

$$$$
