#       Name:                C12H12ClN5O4S
#       Creating user name   chalm
#       Creation time:       Tue Mar 29 19:37:55 2022


#       File generated by GOLD software.
#

@<TRIPOS>MOLECULE
C12H12ClN5O4S
    42    43     1
SMALL
NO_CHARGES


@<TRIPOS>ATOM
      1 ****         5.2844   2.0161  -1.0850 C.3            1 S1                 0.0000
      2 ****         4.1087   1.2492  -0.5365 C.ar           1 S1                 0.0000
      3 ****         2.9590   1.8659  -0.3275 N.ar           1 S1                 0.0000
      4 ****         1.9197   1.1915   0.1565 C.ar           1 S1                 0.0000
      5 ****         2.0391  -0.1025   0.4294 N.ar           1 S1                 0.0000
      6 ****         3.1954  -0.7183   0.2181 C.ar           1 S1                 0.0000
      7 ****         4.2284  -0.0402  -0.2707 N.ar           1 S1                 0.0000
      8 ****         3.3210  -2.0367   0.4955 O.3            1 S1                 0.0000
      9 ****         2.0559  -2.4763   0.9938 C.3            1 S1                 0.0000
     10 ****         0.7145   1.8384   0.3760 N.am           1 S1                 0.0000
     11 ****        -0.3380   1.1542   0.8665 C.2            1 S1                 0.0000
     12 ****        -0.2298  -0.0306   1.1162 O.2            1 S1                 0.0000
     13 ****        -1.5106   1.7835   1.0800 N.am           1 S1                 0.0000
     14 ****        -2.8383   0.9193   1.5624 S.o2           1 S1                 0.0000
     15 ****        -2.4025   0.1181   2.6520 O.2            1 S1                 0.0000
     16 ****        -3.9110   1.8504   1.6034 O.2            1 S1                 0.0000
     17 ****        -3.2323  -0.2080   0.2668 C.ar           1 S1                 0.0000
     18 ****        -3.1498  -1.5698   0.4867 C.ar           1 S1                 0.0000
     19 ****        -3.4588  -2.4545  -0.5298 C.ar           1 S1                 0.0000
     20 ****        -3.8500  -1.9775  -1.7667 C.ar           1 S1                 0.0000
     21 ****        -3.9325  -0.6155  -1.9881 C.ar           1 S1                 0.0000
     22 ****        -3.6297   0.2701  -0.9694 C.ar           1 S1                 0.0000
     23 ****        -3.7336   1.9807  -1.2465 Cl             1 S1                 0.0000
     24 ****         5.8647   2.4302  -0.2605 H              1 S1                 0.0000
     25 ****         5.9133   1.3464  -1.6716 H              1 S1                 0.0000
     26 ****         4.9255   2.8264  -1.7196 H              1 S1                 0.0000
     27 ****         2.1086  -3.5386   1.2323 H              1 S1                 0.0000
     28 ****         1.8043  -1.9140   1.8930 H              1 S1                 0.0000
     29 ****         1.2898  -2.3116   0.2361 H              1 S1                 0.0000
     30 ****         0.6281   2.7838   0.1767 H              1 S1                 0.0000
     31 ****        -1.5767   2.7426   0.9512 H              1 S1                 0.0000
     32 ****        -2.8435  -1.9431   1.4528 H              1 S1                 0.0000
     33 ****        -3.3942  -3.5187  -0.3575 H              1 S1                 0.0000
     34 ****        -4.0910  -2.6691  -2.5605 H              1 S1                 0.0000
     35 ****        -4.2374  -0.2429  -2.9548 H              1 S1                 0.0000
     36 ****         2.8701   2.8405  -0.5334 LP             1 S1                 0.0000
     37 ****         1.2593  -0.6118   0.7934 LP             1 S1                 0.0000
     38 ****         5.0974  -0.5059  -0.4377 LP             1 S1                 0.0000
     39 ****         4.0306  -2.1771   1.1860 LP             1 S1                 0.0000
     40 ****         3.5586  -2.5419  -0.3342 LP             1 S1                 0.0000
     41 ****         0.6401  -0.4976   0.9576 LP             1 S1                 0.0000
     42 ****        -1.0108  -0.5382   1.4801 LP             1 S1                 0.0000
@<TRIPOS>BOND
    1    1    2 1     
    2    2    3 ar    
    3    3    4 ar    
    4    4    5 ar    
    5    5    6 ar    
    6    6    7 ar    
    7    2    7 ar    
    8    6    8 1     
    9    8    9 1     
   10    4   10 1     
   11   10   11 am    
   12   11   12 2     
   13   11   13 am    
   14   13   14 1     
   15   14   15 2     
   16   14   16 2     
   17   14   17 1     
   18   17   18 ar    
   19   18   19 ar    
   20   19   20 ar    
   21   20   21 ar    
   22   21   22 ar    
   23   17   22 ar    
   24   22   23 1     
   25    1   24 1     
   26    1   25 1     
   27    1   26 1     
   28    9   27 1     
   29    9   28 1     
   30    9   29 1     
   31   10   30 1     
   32   13   31 1     
   33   18   32 1     
   34   19   33 1     
   35   20   34 1     
   36   21   35 1     
   37    3   36 1     
   38    5   37 1     
   39    7   38 1     
   40    8   39 1     
   41    8   40 1     
   42   12   41 1     
   43   12   42 1     
@<TRIPOS>SUBSTRUCTURE
      1 S1             1
@<TRIPOS>SET
LONE_PAIRS      STATIC     ATOMS    <user>   **** ""
9 36 37 38 39 40 41 42 15 16
DONOR_HYDROGENS      STATIC     ATOMS    <user>   **** ""
2 30 31
ATOM$BLUE        STATIC     ATOMS    COLORGROUP SYSTEM
9 36 37 38 39 40 41 42 15 16
ATOM$RED        STATIC     ATOMS    COLORGROUP SYSTEM
2 30 31
