C12H12ClN5O4S|Chlorsulfuron|mol|1|dock32
  -GOLD-   2292219383D 1   1.00000     0.00000
 
 35 36  0  0  0  0  0  0  0  0  1 V2000
   67.4998  -73.9995  -13.7687 C   0  0  0  0  0  0  0  0  0  0  0  0
   66.6124  -74.9661  -14.5099 C   0  0  0  0  0  0  0  0  0  0  0  0
   65.5188  -75.4322  -13.9332 N   0  0  0  0  0  0  0  0  0  0  0  0
   64.7337  -76.2854  -14.5851 C   0  0  0  0  0  0  0  0  0  0  0  0
   65.0506  -76.6682  -15.8164 N   0  0  0  0  0  0  0  0  0  0  0  0
   66.1497  -76.1980  -16.3923 C   0  0  0  0  0  0  0  0  0  0  0  0
   66.9270  -75.3416  -15.7378 N   0  0  0  0  0  0  0  0  0  0  0  0
   66.4761  -76.5863  -17.6467 O   0  0  0  0  0  0  0  0  0  0  0  0
   65.4239  -76.1396  -18.5043 C   0  0  0  0  0  0  0  0  0  0  0  0
   63.5874  -76.7742  -13.9800 N   0  0  0  0  0  0  0  0  0  0  0  0
   62.4380  -76.8542  -14.6793 C   0  0  0  0  0  0  0  0  0  0  0  0
   62.4072  -76.4973  -15.8410 O   0  0  0  0  0  0  0  0  0  0  0  0
   61.3227  -77.3297  -14.0906 N   0  0  0  0  0  0  0  0  0  0  0  0
   59.8827  -77.3110  -14.9081 S   0  0  0  0  0  0  0  0  0  0  0  0
   60.1848  -77.7291  -16.2321 O   0  0  0  0  0  0  0  0  0  0  0  0
   58.9403  -77.9316  -14.0443 O   0  0  0  0  0  0  0  0  0  0  0  0
   59.3745  -75.6291  -15.0414 C   0  0  0  0  0  0  0  0  0  0  0  0
   60.3146  -74.6173  -14.9955 C   0  0  0  0  0  0  0  0  0  0  0  0
   59.9160  -73.2976  -15.1000 C   0  0  0  0  0  0  0  0  0  0  0  0
   58.5770  -72.9893  -15.2500 C   0  0  0  0  0  0  0  0  0  0  0  0
   57.6355  -74.0005  -15.2956 C   0  0  0  0  0  0  0  0  0  0  0  0
   58.0344  -75.3215  -15.1976 C   0  0  0  0  0  0  0  0  0  0  0  0
   56.8527  -76.5919  -15.2554 Cl  0  0  0  0  0  0  0  0  0  0  0  0
   68.2514  -74.5539  -13.2067 H   0  0  0  0  0  0  0  0  0  0  0  0
   67.9932  -73.3392  -14.4818 H   0  0  0  0  0  0  0  0  0  0  0  0
   66.8966  -73.4064  -13.0813 H   0  0  0  0  0  0  0  0  0  0  0  0
   65.6439  -76.4310  -19.5313 H   0  0  0  0  0  0  0  0  0  0  0  0
   64.4832  -76.5926  -18.1915 H   0  0  0  0  0  0  0  0  0  0  0  0
   65.3422  -75.0543  -18.4441 H   0  0  0  0  0  0  0  0  0  0  0  0
   63.6120  -77.0590  -13.0530 H   0  0  0  0  0  0  0  0  0  0  0  0
   61.3636  -77.6830  -13.1882 H   0  0  0  0  0  0  0  0  0  0  0  0
   61.3610  -74.8576  -14.8776 H   0  0  0  0  0  0  0  0  0  0  0  0
   60.6511  -72.5072  -15.0641 H   0  0  0  0  0  0  0  0  0  0  0  0
   58.2662  -71.9582  -15.3312 H   0  0  0  0  0  0  0  0  0  0  0  0
   56.5893  -73.7595  -15.4120 H   0  0  0  0  0  0  0  0  0  0  0  0
  1  2  1  0  0  0  0
  2  3  2  0  0  0  0
  3  4  1  0  0  0  0
  4  5  2  0  0  0  0
  5  6  1  0  0  0  0
  6  7  2  0  0  0  0
  2  7  1  0  0  0  0
  6  8  1  0  0  0  0
  8  9  1  0  0  0  0
  4 10  1  0  0  0  0
 10 11  1  0  0  0  0
 11 12  2  0  0  0  0
 11 13  1  0  0  0  0
 13 14  1  0  0  0  0
 14 15  2  0  0  0  0
 14 16  2  0  0  0  0
 14 17  1  0  0  0  0
 17 18  2  0  0  0  0
 18 19  1  0  0  0  0
 19 20  2  0  0  0  0
 20 21  1  0  0  0  0
 21 22  2  0  0  0  0
 17 22  1  0  0  0  0
 22 23  1  0  0  0  0
  1 24  1  0  0  0  0
  1 25  1  0  0  0  0
  1 26  1  0  0  0  0
  9 27  1  0  0  0  0
  9 28  1  0  0  0  0
  9 29  1  0  0  0  0
 10 30  1  0  0  0  0
 13 31  1  0  0  0  0
 18 32  1  0  0  0  0
 19 33  1  0  0  0  0
 20 34  1  0  0  0  0
 21 35  1  0  0  0  0
M  END
> <Gold.Version>
2021.2.0

> <Gold.Id.Protein>
5K6Q|5K6Q_protein|mol2

> <Gold.PLP.Fitness>
32.7029

> <Gold.PLP.PLP>
-25.5918

> <Gold.PLP.part.hbond>
-3.0000

> <Gold.PLP.part.metal>
0.0000

> <Gold.PLP.part.buried>
-6.4509

> <Gold.PLP.part.nonpolar>
-17.8202

> <Gold.PLP.part.repulsive>
0.2357

> <Gold.PLP.ligand.clash>
0.0000

> <Gold.PLP.ligand.torsion>
2.0875

> <Gold.PLP.Chemscore.Hbond>
2.6723

> <Gold.PLP.Chemscore.CHOScore>
0.0000

> <Gold.PLP.Chemscore.Metal>
0.0000

> <Gold.Chemscore.Hbonds>
donor molecule, donor type, donor heavy atom, donor atom, acceptor molecule, acceptor atom, score
      L1  H    10    30       P1  2231  0.80
      L1  H    13    31       P1  2231  0.94
      P1  H  4718  9584       L1     8  0.93

> <Gold.PLP.Chemscore.Internal.Correction>
3.2693

> <Gold.Protein.RotatedTorsions>
[ 6459 1704 1703 1701 ] final  131.42 input   60.01 | X-H torsion
[ 6656 1882 1881 1878 ] final  125.77 input   60.00 | X-H torsion
[ 7002 2256 2255 2252 ] final  -52.96 input   60.00 | X-H torsion
[ 6986 2270 2269 2268 ] final    0.89 input   59.99 | X-H torsion
[ 9089 4362 4361 4358 ] final   -1.00 input   60.01 | X-H torsion
[ 9191 4472 4471 4469 ] final -165.56 input   60.00 | X-H torsion
[ 9201 4474 4473 4471 ] final -112.64 input   60.00 | X-H torsion
[ 9219 4506 4505 4504 ] final -145.87 input   60.00 | X-H torsion
[ 9220 4508 4507 4505 ] final  126.42 input   60.00 | X-H torsion
[ 9214 4510 4509 4507 ] final  -24.56 input   60.00 | X-H torsion

> <Gold.Protein.ActiveResidues>
 TYR305  THR331  LEU332  MET333  LEU349  GLY350  MET351  HIS352  GLY353  ASN358 
 VAL372  ARG373  PHE374  ASP375  ASP376  ARG377  VAL378  THR379  GLY380  LYS381 
 LEU382  PHE385  ASN404  GLY508  GLY509  TRP574  ILE651  PRO652  SER653  GLY654 
 GLY655  FAD702  HOH839  HOH865  HOH881  HOH913  HOH945  HOH958  HOH960  HOH966 
 HOH968 

> <Gold.Protein.RotatedAtoms>
   60.3072  -74.5149   -3.0804 H   0  0  0  0  0  0  0  0  0  0  0  0  # atno 6459 bound_to 1704
   62.1550  -67.7970   -5.7420 H   0  0  0  0  0  0  0  0  0  0  0  0  # atno 6656 bound_to 1882
   62.9892  -90.6003   -2.3870 H   0  0  0  0  0  0  0  0  0  0  0  0  # atno 6986 bound_to 2270
   63.2843  -89.6433   -1.0662 H   0  0  0  0  0  0  0  0  0  0  0  0  # atno 6987 bound_to 2270
   61.7243  -89.9653   -1.5243 H   0  0  0  0  0  0  0  0  0  0  0  0  # atno 6988 bound_to 2270
   61.7323  -79.4551   -5.9930 H   0  0  0  0  0  0  0  0  0  0  0  0  # atno 7002 bound_to 2256
   69.4415  -80.9144  -11.1387 H   0  0  0  0  0  0  0  0  0  0  0  0  # atno 9089 bound_to 4362
   52.5870  -69.8279   -8.5733 H   0  0  0  0  0  0  0  0  0  0  0  0  # atno 9191 bound_to 4472
   51.0390  -67.2427   -9.2006 H   0  0  0  0  0  0  0  0  0  0  0  0  # atno 9201 bound_to 4474
   62.8909  -72.5380   -8.3763 H   0  0  0  0  0  0  0  0  0  0  0  0  # atno 9214 bound_to 4510
   63.4555  -72.5934  -11.7652 H   0  0  0  0  0  0  0  0  0  0  0  0  # atno 9219 bound_to 4506
   62.3321  -69.7400  -11.4873 H   0  0  0  0  0  0  0  0  0  0  0  0  # atno 9220 bound_to 4508
   61.1622  -73.1705   -3.4116 LP  0  0  0  0  0  0  0  0  0  0  0  0  # atno 9615 bound_to 1704
   59.5612  -73.2223   -3.7291 LP  0  0  0  0  0  0  0  0  0  0  0  0  # atno 9616 bound_to 1704
   62.8199  -66.8720   -4.5799 LP  0  0  0  0  0  0  0  0  0  0  0  0  # atno 9619 bound_to 1882
   61.4350  -67.6860   -4.2868 LP  0  0  0  0  0  0  0  0  0  0  0  0  # atno 9620 bound_to 1882
   60.3466  -80.2217   -5.6186 LP  0  0  0  0  0  0  0  0  0  0  0  0  # atno 9664 bound_to 2256
   61.7757  -81.0005   -5.4850 LP  0  0  0  0  0  0  0  0  0  0  0  0  # atno 9665 bound_to 2256
   68.4473  -81.1556  -12.4042 LP  0  0  0  0  0  0  0  0  0  0  0  0  # atno 9690 bound_to 4362
   70.0397  -81.4918  -12.5376 LP  0  0  0  0  0  0  0  0  0  0  0  0  # atno 9691 bound_to 4362
   52.4838  -69.3630   -7.0172 LP  0  0  0  0  0  0  0  0  0  0  0  0  # atno 9698 bound_to 4472
   53.8264  -70.1179   -7.5595 LP  0  0  0  0  0  0  0  0  0  0  0  0  # atno 9699 bound_to 4472
   50.7217  -67.4229   -7.6148 LP  0  0  0  0  0  0  0  0  0  0  0  0  # atno 9700 bound_to 4474
   51.4004  -68.6451   -8.4587 LP  0  0  0  0  0  0  0  0  0  0  0  0  # atno 9701 bound_to 4474
   64.8641  -73.2838  -11.3326 LP  0  0  0  0  0  0  0  0  0  0  0  0  # atno 9709 bound_to 4506
   64.8608  -71.8560  -12.1249 LP  0  0  0  0  0  0  0  0  0  0  0  0  # atno 9710 bound_to 4506
   63.9528  -69.7966  -11.3523 LP  0  0  0  0  0  0  0  0  0  0  0  0  # atno 9711 bound_to 4508
   63.0654  -68.9957  -10.2398 LP  0  0  0  0  0  0  0  0  0  0  0  0  # atno 9712 bound_to 4508
   62.3246  -71.7229   -7.0867 LP  0  0  0  0  0  0  0  0  0  0  0  0  # atno 9713 bound_to 4510
   63.9082  -71.6412   -7.4769 LP  0  0  0  0  0  0  0  0  0  0  0  0  # atno 9714 bound_to 4510

$$$$
