C12H12ClN5O4S|Chlorsulfuron|mol|1|dock36
  -GOLD-   2292219383D 1   1.00000     0.00000
 
 35 36  0  0  0  0  0  0  0  0  1 V2000
   67.4160  -73.9888  -13.7696 C   0  0  0  0  0  0  0  0  0  0  0  0
   66.4839  -74.9276  -14.4914 C   0  0  0  0  0  0  0  0  0  0  0  0
   65.3514  -75.2996  -13.9214 N   0  0  0  0  0  0  0  0  0  0  0  0
   64.5268  -76.1281  -14.5561 C   0  0  0  0  0  0  0  0  0  0  0  0
   64.8433  -76.5809  -15.7636 N   0  0  0  0  0  0  0  0  0  0  0  0
   65.9816  -76.2050  -16.3327 C   0  0  0  0  0  0  0  0  0  0  0  0
   66.7986  -75.3728  -15.6957 N   0  0  0  0  0  0  0  0  0  0  0  0
   66.3077  -76.6648  -17.5628 O   0  0  0  0  0  0  0  0  0  0  0  0
   66.5337  -75.5186  -18.3857 C   0  0  0  0  0  0  0  0  0  0  0  0
   63.3397  -76.5183  -13.9581 N   0  0  0  0  0  0  0  0  0  0  0  0
   62.1638  -76.0639  -14.4348 C   0  0  0  0  0  0  0  0  0  0  0  0
   62.1449  -75.3116  -15.3895 O   0  0  0  0  0  0  0  0  0  0  0  0
   61.0088  -76.4435  -13.8530 N   0  0  0  0  0  0  0  0  0  0  0  0
   59.5736  -75.7885  -14.3565 S   0  0  0  0  0  0  0  0  0  0  0  0
   58.5568  -76.5845  -13.7636 O   0  0  0  0  0  0  0  0  0  0  0  0
   59.7145  -74.3832  -14.1997 O   0  0  0  0  0  0  0  0  0  0  0  0
   59.4480  -76.0662  -16.0919 C   0  0  0  0  0  0  0  0  0  0  0  0
   59.2551  -75.0005  -16.9502 C   0  0  0  0  0  0  0  0  0  0  0  0
   59.1564  -75.2182  -18.3119 C   0  0  0  0  0  0  0  0  0  0  0  0
   59.2501  -76.5019  -18.8157 C   0  0  0  0  0  0  0  0  0  0  0  0
   59.4426  -77.5689  -17.9582 C   0  0  0  0  0  0  0  0  0  0  0  0
   59.5479  -77.3509  -16.5961 C   0  0  0  0  0  0  0  0  0  0  0  0
   59.7902  -78.6904  -15.5186 Cl  0  0  0  0  0  0  0  0  0  0  0  0
   68.1192  -74.5655  -13.1689 H   0  0  0  0  0  0  0  0  0  0  0  0
   67.9648  -73.3909  -14.4973 H   0  0  0  0  0  0  0  0  0  0  0  0
   66.8381  -73.3308  -13.1205 H   0  0  0  0  0  0  0  0  0  0  0  0
   66.8009  -75.8409  -19.3921 H   0  0  0  0  0  0  0  0  0  0  0  0
   65.6266  -74.9157  -18.4260 H   0  0  0  0  0  0  0  0  0  0  0  0
   67.3461  -74.9249  -17.9666 H   0  0  0  0  0  0  0  0  0  0  0  0
   63.3548  -77.1186  -13.1962 H   0  0  0  0  0  0  0  0  0  0  0  0
   61.0183  -77.1004  -13.1394 H   0  0  0  0  0  0  0  0  0  0  0  0
   59.1811  -73.9972  -16.5571 H   0  0  0  0  0  0  0  0  0  0  0  0
   59.0056  -74.3850  -18.9823 H   0  0  0  0  0  0  0  0  0  0  0  0
   59.1726  -76.6714  -19.8795 H   0  0  0  0  0  0  0  0  0  0  0  0
   59.5150  -78.5720  -18.3518 H   0  0  0  0  0  0  0  0  0  0  0  0
  1  2  1  0  0  0  0
  2  3  2  0  0  0  0
  3  4  1  0  0  0  0
  4  5  2  0  0  0  0
  5  6  1  0  0  0  0
  6  7  2  0  0  0  0
  2  7  1  0  0  0  0
  6  8  1  0  0  0  0
  8  9  1  0  0  0  0
  4 10  1  0  0  0  0
 10 11  1  0  0  0  0
 11 12  2  0  0  0  0
 11 13  1  0  0  0  0
 13 14  1  0  0  0  0
 14 15  2  0  0  0  0
 14 16  2  0  0  0  0
 14 17  1  0  0  0  0
 17 18  2  0  0  0  0
 18 19  1  0  0  0  0
 19 20  2  0  0  0  0
 20 21  1  0  0  0  0
 21 22  2  0  0  0  0
 17 22  1  0  0  0  0
 22 23  1  0  0  0  0
  1 24  1  0  0  0  0
  1 25  1  0  0  0  0
  1 26  1  0  0  0  0
  9 27  1  0  0  0  0
  9 28  1  0  0  0  0
  9 29  1  0  0  0  0
 10 30  1  0  0  0  0
 13 31  1  0  0  0  0
 18 32  1  0  0  0  0
 19 33  1  0  0  0  0
 20 34  1  0  0  0  0
 21 35  1  0  0  0  0
M  END
> <Gold.Version>
2021.2.0

> <Gold.Id.Protein>
5K6Q|5K6Q_protein|mol2

> <Gold.PLP.Fitness>
28.4288

> <Gold.PLP.PLP>
-20.7272

> <Gold.PLP.part.hbond>
-4.6617

> <Gold.PLP.part.metal>
0.0000

> <Gold.PLP.part.buried>
-5.3165

> <Gold.PLP.part.nonpolar>
-12.5689

> <Gold.PLP.part.repulsive>
0.4670

> <Gold.PLP.ligand.clash>
0.0000

> <Gold.PLP.ligand.torsion>
2.2896

> <Gold.PLP.Chemscore.Hbond>
3.0038

> <Gold.PLP.Chemscore.CHOScore>
0.0000

> <Gold.PLP.Chemscore.Metal>
0.0000

> <Gold.Chemscore.Hbonds>
donor molecule, donor type, donor heavy atom, donor atom, acceptor molecule, acceptor atom, score
      L1  H    10    30       P1  2231  0.94
      L1  H    13    31       P1  2231  0.23
      P1  H  2204  6935       L1    16  1.00
      P1  H  4718  9584       L1     8  0.83

> <Gold.PLP.Chemscore.Internal.Correction>
3.2693

> <Gold.Protein.RotatedTorsions>
[ 6459 1704 1703 1701 ] final  156.63 input   60.01 | X-H torsion
[ 6656 1882 1881 1878 ] final  -38.80 input   60.00 | X-H torsion
[ 7002 2256 2255 2252 ] final -138.94 input   60.00 | X-H torsion
[ 6986 2270 2269 2268 ] final   77.71 input   59.99 | X-H torsion
[ 9089 4362 4361 4358 ] final -155.92 input   60.01 | X-H torsion
[ 9191 4472 4471 4469 ] final   -7.75 input   60.00 | X-H torsion
[ 9201 4474 4473 4471 ] final   13.11 input   60.00 | X-H torsion
[ 9219 4506 4505 4504 ] final -103.36 input   60.00 | X-H torsion
[ 9220 4508 4507 4505 ] final   64.28 input   60.00 | X-H torsion
[ 9214 4510 4509 4507 ] final   14.39 input   60.00 | X-H torsion

> <Gold.Protein.ActiveResidues>
 TYR305  THR331  LEU332  MET333  LEU349  GLY350  MET351  HIS352  GLY353  ASN358 
 VAL372  ARG373  PHE374  ASP375  ASP376  ARG377  VAL378  THR379  GLY380  LYS381 
 LEU382  PHE385  ASN404  GLY508  GLY509  TRP574  ILE651  PRO652  SER653  GLY654 
 GLY655  FAD702  HOH839  HOH865  HOH881  HOH913  HOH945  HOH958  HOH960  HOH966 
 HOH968 

> <Gold.Protein.RotatedAtoms>
   59.9197  -74.4440   -3.1888 H   0  0  0  0  0  0  0  0  0  0  0  0  # atno 6459 bound_to 1704
   62.3320  -66.9987   -4.0763 H   0  0  0  0  0  0  0  0  0  0  0  0  # atno 6656 bound_to 1882
   63.6167  -90.0096   -1.5678 H   0  0  0  0  0  0  0  0  0  0  0  0  # atno 6986 bound_to 2270
   62.0960  -89.6156   -1.0391 H   0  0  0  0  0  0  0  0  0  0  0  0  # atno 6987 bound_to 2270
   62.2854  -90.5840   -2.3709 H   0  0  0  0  0  0  0  0  0  0  0  0  # atno 6988 bound_to 2270
   60.5001  -79.7242   -5.7952 H   0  0  0  0  0  0  0  0  0  0  0  0  # atno 7002 bound_to 2256
   68.8031  -81.3543  -12.7939 H   0  0  0  0  0  0  0  0  0  0  0  0  # atno 9089 bound_to 4362
   53.6066  -69.8768   -7.0455 H   0  0  0  0  0  0  0  0  0  0  0  0  # atno 9191 bound_to 4472
   51.3803  -68.6443   -8.3663 H   0  0  0  0  0  0  0  0  0  0  0  0  # atno 9201 bound_to 4474
   63.4948  -72.3818   -8.3553 H   0  0  0  0  0  0  0  0  0  0  0  0  # atno 9214 bound_to 4510
   63.7002  -72.0359  -12.0654 H   0  0  0  0  0  0  0  0  0  0  0  0  # atno 9219 bound_to 4506
   63.1988  -70.0248  -11.8058 H   0  0  0  0  0  0  0  0  0  0  0  0  # atno 9220 bound_to 4508
   61.2677  -73.5346   -3.2516 LP  0  0  0  0  0  0  0  0  0  0  0  0  # atno 9615 bound_to 1704
   59.8460  -72.9296   -3.7799 LP  0  0  0  0  0  0  0  0  0  0  0  0  # atno 9616 bound_to 1704
   61.3668  -67.9937   -4.9287 LP  0  0  0  0  0  0  0  0  0  0  0  0  # atno 9619 bound_to 1882
   62.7099  -67.3682   -5.6153 LP  0  0  0  0  0  0  0  0  0  0  0  0  # atno 9620 bound_to 1882
   61.2433  -81.1167   -5.3995 LP  0  0  0  0  0  0  0  0  0  0  0  0  # atno 9664 bound_to 2256
   62.1200  -79.8345   -5.9033 LP  0  0  0  0  0  0  0  0  0  0  0  0  # atno 9665 bound_to 2256
   70.2374  -81.3557  -12.0252 LP  0  0  0  0  0  0  0  0  0  0  0  0  # atno 9690 bound_to 4362
   68.8926  -80.8488  -11.2498 LP  0  0  0  0  0  0  0  0  0  0  0  0  # atno 9691 bound_to 4362
   53.1386  -70.0849   -8.5901 LP  0  0  0  0  0  0  0  0  0  0  0  0  # atno 9698 bound_to 4472
   52.1448  -69.3467   -7.5252 LP  0  0  0  0  0  0  0  0  0  0  0  0  # atno 9699 bound_to 4472
   51.0761  -67.3132   -9.2516 LP  0  0  0  0  0  0  0  0  0  0  0  0  # atno 9700 bound_to 4474
   50.7023  -67.3432   -7.6622 LP  0  0  0  0  0  0  0  0  0  0  0  0  # atno 9701 bound_to 4474
   64.1890  -73.3865  -11.3006 LP  0  0  0  0  0  0  0  0  0  0  0  0  # atno 9709 bound_to 4506
   65.2895  -72.3147  -11.8545 LP  0  0  0  0  0  0  0  0  0  0  0  0  # atno 9710 bound_to 4506
   63.8835  -69.2645  -10.5405 LP  0  0  0  0  0  0  0  0  0  0  0  0  # atno 9711 bound_to 4508
   62.2618  -69.2409  -10.7308 LP  0  0  0  0  0  0  0  0  0  0  0  0  # atno 9712 bound_to 4508
   62.1144  -72.1053   -7.5392 LP  0  0  0  0  0  0  0  0  0  0  0  0  # atno 9713 bound_to 4510
   63.5101  -71.4162   -7.0455 LP  0  0  0  0  0  0  0  0  0  0  0  0  # atno 9714 bound_to 4510

$$$$
