#       Name:                GA Fitting Points
#       Creating user name   chalm
#       Creation time:       Wed Mar 30 01:36:46 2022


#       Fitting Points Used by GA Software.
#

@<TRIPOS>MOLECULE
GA Fitting Points
 13074    0    0
SMALL
NO_CHARGES


@<TRIPOS>ATOM
      1 ****        41.2500  69.7500  65.0000 Du        
      2 ****        41.2500  69.7500  65.2500 Du        
      3 ****        41.2500  70.0000  64.7500 Du        
      4 ****        41.2500  70.0000  65.0000 Du        
      5 ****        41.2500  70.0000  65.2500 Du        
      6 ****        41.2500  70.2500  64.7500 Du        
      7 ****        41.2500  70.2500  65.0000 Du        
      8 ****        41.2500  70.5000  64.7500 Du        
      9 ****        41.5000  64.0000  59.2500 Du        
     10 ****        41.5000  64.2500  59.2500 Du        
     11 ****        41.5000  64.2500  59.5000 Du        
     12 ****        41.5000  64.2500  59.7500 Du        
     13 ****        41.5000  64.2500  60.2500 Du        
     14 ****        41.5000  64.5000  59.2500 Du        
     15 ****        41.5000  64.5000  59.5000 Du        
     16 ****        41.5000  64.5000  59.7500 Du        
     17 ****        41.5000  64.7500  59.0000 Du        
     18 ****        41.5000  64.7500  59.2500 Du        
     19 ****        41.5000  64.7500  59.5000 Du        
     20 ****        41.5000  69.2500  65.0000 Du        
     21 ****        41.5000  69.5000  65.0000 Du        
     22 ****        41.5000  69.5000  65.2500 Du        
     23 ****        41.5000  69.7500  64.7500 Du        
     24 ****        41.5000  69.7500  65.0000 Du        
     25 ****        41.5000  69.7500  65.2500 Du        
     26 ****        41.5000  69.7500  65.5000 Du        
     27 ****        41.5000  70.0000  64.7500 Du        
     28 ****        41.5000  70.0000  65.0000 Du        
     29 ****        41.5000  70.0000  65.2500 Du        
     30 ****        41.5000  70.0000  65.5000 Du        
     31 ****        41.5000  70.2500  64.7500 Du        
     32 ****        41.5000  70.2500  65.0000 Du        
     33 ****        41.5000  70.2500  65.2500 Du        
     34 ****        41.5000  70.2500  65.5000 Du        
     35 ****        41.5000  70.5000  64.7500 Du        
     36 ****        41.5000  70.5000  65.0000 Du        
     37 ****        41.5000  70.5000  65.2500 Du        
     38 ****        41.5000  70.7500  64.5000 Du        
     39 ****        41.5000  70.7500  64.7500 Du        
     40 ****        41.5000  70.7500  65.0000 Du        
     41 ****        41.5000  71.0000  64.5000 Du        
     42 ****        41.5000  71.0000  64.7500 Du        
     43 ****        41.7500  63.7500  58.7500 Du        
     44 ****        41.7500  63.7500  59.0000 Du        
     45 ****        41.7500  63.7500  59.2500 Du        
     46 ****        41.7500  63.7500  59.5000 Du        
     47 ****        41.7500  63.7500  59.7500 Du        
     48 ****        41.7500  63.7500  60.0000 Du        
     49 ****        41.7500  63.7500  60.2500 Du        
     50 ****        41.7500  64.0000  58.5000 Du        
     51 ****        41.7500  64.0000  58.7500 Du        
     52 ****        41.7500  64.0000  59.0000 Du        
     53 ****        41.7500  64.0000  59.2500 Du        
     54 ****        41.7500  64.0000  59.5000 Du        
     55 ****        41.7500  64.0000  59.7500 Du        
     56 ****        41.7500  64.0000  60.0000 Du        
     57 ****        41.7500  64.0000  60.2500 Du        
     58 ****        41.7500  64.0000  60.5000 Du        
     59 ****        41.7500  64.0000  60.7500 Du        
     60 ****        41.7500  64.0000  61.0000 Du        
     61 ****        41.7500  64.2500  58.5000 Du        
     62 ****        41.7500  64.2500  58.7500 Du        
     63 ****        41.7500  64.2500  59.0000 Du        
     64 ****        41.7500  64.2500  59.2500 Du        
     65 ****        41.7500  64.2500  59.5000 Du        
     66 ****        41.7500  64.2500  59.7500 Du        
     67 ****        41.7500  64.2500  60.0000 Du        
     68 ****        41.7500  64.2500  60.2500 Du        
     69 ****        41.7500  64.2500  60.5000 Du        
     70 ****        41.7500  64.2500  60.7500 Du        
     71 ****        41.7500  64.2500  61.0000 Du        
     72 ****        41.7500  64.2500  61.2500 Du        
     73 ****        41.7500  64.5000  57.7500 Du        
     74 ****        41.7500  64.5000  58.0000 Du        
     75 ****        41.7500  64.5000  58.2500 Du        
     76 ****        41.7500  64.5000  58.5000 Du        
     77 ****        41.7500  64.5000  58.7500 Du        
     78 ****        41.7500  64.5000  59.0000 Du        
     79 ****        41.7500  64.5000  59.2500 Du        
     80 ****        41.7500  64.5000  59.5000 Du        
     81 ****        41.7500  64.5000  59.7500 Du        
     82 ****        41.7500  64.5000  60.0000 Du        
     83 ****        41.7500  64.5000  60.2500 Du        
     84 ****        41.7500  64.5000  60.5000 Du        
     85 ****        41.7500  64.5000  60.7500 Du        
     86 ****        41.7500  64.7500  57.7500 Du        
     87 ****        41.7500  64.7500  58.0000 Du        
     88 ****        41.7500  64.7500  58.2500 Du        
     89 ****        41.7500  64.7500  58.5000 Du        
     90 ****        41.7500  64.7500  58.7500 Du        
     91 ****        41.7500  64.7500  59.0000 Du        
     92 ****        41.7500  64.7500  59.2500 Du        
     93 ****        41.7500  64.7500  59.5000 Du        
     94 ****        41.7500  64.7500  59.7500 Du        
     95 ****        41.7500  64.7500  60.0000 Du        
     96 ****        41.7500  64.7500  60.2500 Du        
     97 ****        41.7500  64.7500  60.5000 Du        
     98 ****        41.7500  64.7500  60.7500 Du        
     99 ****        41.7500  64.7500  61.0000 Du        
    100 ****        41.7500  65.0000  58.0000 Du        
    101 ****        41.7500  65.0000  58.2500 Du        
    102 ****        41.7500  65.0000  58.5000 Du        
    103 ****        41.7500  65.0000  58.7500 Du        
    104 ****        41.7500  65.0000  59.0000 Du        
    105 ****        41.7500  65.0000  59.2500 Du        
    106 ****        41.7500  65.0000  59.5000 Du        
    107 ****        41.7500  65.0000  59.7500 Du        
    108 ****        41.7500  65.0000  60.0000 Du        
    109 ****        41.7500  65.0000  60.2500 Du        
    110 ****        41.7500  65.0000  60.5000 Du        
    111 ****        41.7500  65.0000  60.7500 Du        
    112 ****        41.7500  65.2500  58.5000 Du        
    113 ****        41.7500  65.2500  58.7500 Du        
    114 ****        41.7500  65.2500  59.0000 Du        
    115 ****        41.7500  65.2500  59.2500 Du        
    116 ****        41.7500  65.2500  59.5000 Du        
    117 ****        41.7500  65.2500  59.7500 Du        
    118 ****        41.7500  65.2500  60.0000 Du        
    119 ****        41.7500  65.2500  60.2500 Du        
    120 ****        41.7500  65.2500  60.5000 Du        
    121 ****        41.7500  65.2500  60.7500 Du        
    122 ****        41.7500  69.0000  65.0000 Du        
    123 ****        41.7500  69.0000  65.2500 Du        
    124 ****        41.7500  69.2500  65.0000 Du        
    125 ****        41.7500  69.2500  65.2500 Du        
    126 ****        41.7500  69.5000  65.0000 Du        
    127 ****        41.7500  69.5000  65.2500 Du        
    128 ****        41.7500  69.7500  64.7500 Du        
    129 ****        41.7500  69.7500  65.0000 Du        
    130 ****        41.7500  69.7500  65.2500 Du        
    131 ****        41.7500  69.7500  65.5000 Du        
    132 ****        41.7500  70.0000  64.7500 Du        
    133 ****        41.7500  70.0000  65.0000 Du        
    134 ****        41.7500  70.0000  65.2500 Du        
    135 ****        41.7500  70.0000  65.5000 Du        
    136 ****        41.7500  70.0000  65.7500 Du        
    137 ****        41.7500  70.2500  64.7500 Du        
    138 ****        41.7500  70.2500  65.0000 Du        
    139 ****        41.7500  70.2500  65.2500 Du        
    140 ****        41.7500  70.2500  65.5000 Du        
    141 ****        41.7500  70.2500  65.7500 Du        
    142 ****        41.7500  70.5000  64.7500 Du        
    143 ****        41.7500  70.5000  65.0000 Du        
    144 ****        41.7500  70.5000  65.2500 Du        
    145 ****        41.7500  70.5000  65.5000 Du        
    146 ****        41.7500  70.7500  64.7500 Du        
    147 ****        41.7500  70.7500  65.0000 Du        
    148 ****        41.7500  70.7500  65.2500 Du        
    149 ****        41.7500  71.0000  64.7500 Du        
    150 ****        41.7500  71.0000  65.0000 Du        
    151 ****        41.7500  71.0000  65.2500 Du        
    152 ****        41.7500  71.2500  65.0000 Du        
    153 ****        42.0000  55.5000  62.0000 Du        
    154 ****        42.0000  55.5000  62.2500 Du        
    155 ****        42.0000  55.7500  62.0000 Du        
    156 ****        42.0000  55.7500  62.2500 Du        
    157 ****        42.0000  55.7500  62.5000 Du        
    158 ****        42.0000  56.0000  62.2500 Du        
    159 ****        42.0000  63.7500  58.5000 Du        
    160 ****        42.0000  63.7500  58.7500 Du        
    161 ****        42.0000  63.7500  59.0000 Du        
    162 ****        42.0000  63.7500  59.2500 Du        
    163 ****        42.0000  63.7500  59.5000 Du        
    164 ****        42.0000  63.7500  59.7500 Du        
    165 ****        42.0000  63.7500  60.0000 Du        
    166 ****        42.0000  63.7500  60.2500 Du        
    167 ****        42.0000  63.7500  60.5000 Du        
    168 ****        42.0000  64.0000  57.7500 Du        
    169 ****        42.0000  64.0000  58.0000 Du        
    170 ****        42.0000  64.0000  58.2500 Du        
    171 ****        42.0000  64.0000  58.5000 Du        
    172 ****        42.0000  64.0000  58.7500 Du        
    173 ****        42.0000  64.0000  59.0000 Du        
    174 ****        42.0000  64.0000  59.2500 Du        
    175 ****        42.0000  64.0000  59.5000 Du        
    176 ****        42.0000  64.0000  59.7500 Du        
    177 ****        42.0000  64.0000  60.0000 Du        
    178 ****        42.0000  64.0000  60.2500 Du        
    179 ****        42.0000  64.0000  60.5000 Du        
    180 ****        42.0000  64.0000  60.7500 Du        
    181 ****        42.0000  64.0000  61.0000 Du        
    182 ****        42.0000  64.0000  61.2500 Du        
    183 ****        42.0000  64.2500  57.5000 Du        
    184 ****        42.0000  64.2500  57.7500 Du        
    185 ****        42.0000  64.2500  58.0000 Du        
    186 ****        42.0000  64.2500  58.2500 Du        
    187 ****        42.0000  64.2500  58.5000 Du        
    188 ****        42.0000  64.2500  58.7500 Du        
    189 ****        42.0000  64.2500  59.0000 Du        
    190 ****        42.0000  64.2500  59.2500 Du        
    191 ****        42.0000  64.2500  59.5000 Du        
    192 ****        42.0000  64.2500  59.7500 Du        
    193 ****        42.0000  64.2500  60.0000 Du        
    194 ****        42.0000  64.2500  60.2500 Du        
    195 ****        42.0000  64.2500  60.5000 Du        
    196 ****        42.0000  64.2500  60.7500 Du        
    197 ****        42.0000  64.2500  61.0000 Du        
    198 ****        42.0000  64.2500  61.2500 Du        
    199 ****        42.0000  64.5000  57.5000 Du        
    200 ****        42.0000  64.5000  57.7500 Du        
    201 ****        42.0000  64.5000  58.0000 Du        
    202 ****        42.0000  64.5000  58.2500 Du        
    203 ****        42.0000  64.5000  58.5000 Du        
    204 ****        42.0000  64.5000  58.7500 Du        
    205 ****        42.0000  64.5000  59.0000 Du        
    206 ****        42.0000  64.5000  59.2500 Du        
    207 ****        42.0000  64.5000  59.5000 Du        
    208 ****        42.0000  64.5000  59.7500 Du        
    209 ****        42.0000  64.5000  60.0000 Du        
    210 ****        42.0000  64.5000  60.2500 Du        
    211 ****        42.0000  64.5000  60.5000 Du        
    212 ****        42.0000  64.5000  60.7500 Du        
    213 ****        42.0000  64.5000  61.0000 Du        
    214 ****        42.0000  64.5000  61.2500 Du        
    215 ****        42.0000  64.7500  57.5000 Du        
    216 ****        42.0000  64.7500  57.7500 Du        
    217 ****        42.0000  64.7500  58.0000 Du        
    218 ****        42.0000  64.7500  58.2500 Du        
    219 ****        42.0000  64.7500  58.5000 Du        
    220 ****        42.0000  64.7500  58.7500 Du        
    221 ****        42.0000  64.7500  59.0000 Du        
    222 ****        42.0000  64.7500  59.2500 Du        
    223 ****        42.0000  64.7500  59.5000 Du        
    224 ****        42.0000  64.7500  59.7500 Du        
    225 ****        42.0000  64.7500  60.0000 Du        
    226 ****        42.0000  64.7500  60.2500 Du        
    227 ****        42.0000  64.7500  60.5000 Du        
    228 ****        42.0000  64.7500  60.7500 Du        
    229 ****        42.0000  64.7500  61.0000 Du        
    230 ****        42.0000  64.7500  61.2500 Du        
    231 ****        42.0000  65.0000  57.5000 Du        
    232 ****        42.0000  65.0000  57.7500 Du        
    233 ****        42.0000  65.0000  58.0000 Du        
    234 ****        42.0000  65.0000  58.2500 Du        
    235 ****        42.0000  65.0000  58.5000 Du        
    236 ****        42.0000  65.0000  58.7500 Du        
    237 ****        42.0000  65.0000  59.0000 Du        
    238 ****        42.0000  65.0000  59.2500 Du        
    239 ****        42.0000  65.0000  59.5000 Du        
    240 ****        42.0000  65.0000  59.7500 Du        
    241 ****        42.0000  65.0000  60.0000 Du        
    242 ****        42.0000  65.0000  60.2500 Du        
    243 ****        42.0000  65.0000  60.5000 Du        
    244 ****        42.0000  65.0000  60.7500 Du        
    245 ****        42.0000  65.0000  61.0000 Du        
    246 ****        42.0000  65.0000  61.2500 Du        
    247 ****        42.0000  65.2500  57.7500 Du        
    248 ****        42.0000  65.2500  58.0000 Du        
    249 ****        42.0000  65.2500  58.2500 Du        
    250 ****        42.0000  65.2500  58.5000 Du        
    251 ****        42.0000  65.2500  58.7500 Du        
    252 ****        42.0000  65.2500  59.0000 Du        
    253 ****        42.0000  65.2500  59.2500 Du        
    254 ****        42.0000  65.2500  59.5000 Du        
    255 ****        42.0000  65.2500  59.7500 Du        
    256 ****        42.0000  65.2500  60.0000 Du        
    257 ****        42.0000  65.2500  60.2500 Du        
    258 ****        42.0000  65.2500  60.5000 Du        
    259 ****        42.0000  65.2500  60.7500 Du        
    260 ****        42.0000  65.2500  61.0000 Du        
    261 ****        42.0000  65.2500  61.2500 Du        
    262 ****        42.0000  65.5000  58.2500 Du        
    263 ****        42.0000  65.5000  58.5000 Du        
    264 ****        42.0000  65.5000  58.7500 Du        
    265 ****        42.0000  65.5000  59.0000 Du        
    266 ****        42.0000  65.5000  59.2500 Du        
    267 ****        42.0000  65.5000  59.7500 Du        
    268 ****        42.0000  65.5000  60.0000 Du        
    269 ****        42.0000  65.5000  60.2500 Du        
    270 ****        42.0000  65.7500  58.5000 Du        
    271 ****        42.0000  65.7500  58.7500 Du        
    272 ****        42.0000  68.0000  56.2500 Du        
    273 ****        42.0000  68.0000  56.5000 Du        
    274 ****        42.0000  68.2500  56.0000 Du        
    275 ****        42.0000  68.2500  56.2500 Du        
    276 ****        42.0000  68.2500  56.5000 Du        
    277 ****        42.0000  68.2500  64.7500 Du        
    278 ****        42.0000  68.2500  65.0000 Du        
    279 ****        42.0000  68.5000  55.7500 Du        
    280 ****        42.0000  68.5000  56.0000 Du        
    281 ****        42.0000  68.5000  56.2500 Du        
    282 ****        42.0000  68.5000  56.5000 Du        
    283 ****        42.0000  68.7500  55.7500 Du        
    284 ****        42.0000  68.7500  56.0000 Du        
    285 ****        42.0000  68.7500  56.2500 Du        
    286 ****        42.0000  68.7500  56.5000 Du        
    287 ****        42.0000  68.7500  65.0000 Du        
    288 ****        42.0000  69.0000  55.7500 Du        
    289 ****        42.0000  69.0000  56.0000 Du        
    290 ****        42.0000  69.0000  56.2500 Du        
    291 ****        42.0000  69.0000  56.5000 Du        
    292 ****        42.0000  69.0000  65.0000 Du        
    293 ****        42.0000  69.2500  56.0000 Du        
    294 ****        42.0000  69.2500  56.2500 Du        
    295 ****        42.0000  69.2500  56.5000 Du        
    296 ****        42.0000  69.2500  65.0000 Du        
    297 ****        42.0000  69.2500  65.2500 Du        
    298 ****        42.0000  69.5000  56.2500 Du        
    299 ****        42.0000  69.5000  56.5000 Du        
    300 ****        42.0000  69.5000  65.0000 Du        
    301 ****        42.0000  69.5000  65.2500 Du        
    302 ****        42.0000  69.7500  65.0000 Du        
    303 ****        42.0000  69.7500  65.2500 Du        
    304 ****        42.0000  70.0000  65.0000 Du        
    305 ****        42.0000  70.0000  65.2500 Du        
    306 ****        42.0000  70.0000  65.5000 Du        
    307 ****        42.0000  70.2500  64.7500 Du        
    308 ****        42.0000  70.2500  65.0000 Du        
    309 ****        42.0000  70.2500  65.2500 Du        
    310 ****        42.0000  70.2500  65.5000 Du        
    311 ****        42.0000  70.5000  64.7500 Du        
    312 ****        42.0000  70.5000  65.0000 Du        
    313 ****        42.0000  70.5000  65.2500 Du        
    314 ****        42.0000  70.5000  65.5000 Du        
    315 ****        42.0000  70.5000  65.7500 Du        
    316 ****        42.0000  70.7500  64.7500 Du        
    317 ****        42.0000  70.7500  65.0000 Du        
    318 ****        42.0000  70.7500  65.2500 Du        
    319 ****        42.0000  70.7500  65.5000 Du        
    320 ****        42.0000  71.0000  65.0000 Du        
    321 ****        42.0000  71.0000  65.2500 Du        
    322 ****        42.2500  55.5000  62.0000 Du        
    323 ****        42.2500  55.5000  62.2500 Du        
    324 ****        42.2500  55.5000  62.5000 Du        
    325 ****        42.2500  55.7500  62.0000 Du        
    326 ****        42.2500  55.7500  62.2500 Du        
    327 ****        42.2500  55.7500  62.5000 Du        
    328 ****        42.2500  55.7500  62.7500 Du        
    329 ****        42.2500  56.0000  62.2500 Du        
    330 ****        42.2500  56.0000  62.5000 Du        
    331 ****        42.2500  56.0000  62.7500 Du        
    332 ****        42.2500  63.5000  59.2500 Du        
    333 ****        42.2500  63.5000  59.5000 Du        
    334 ****        42.2500  63.5000  59.7500 Du        
    335 ****        42.2500  63.7500  58.5000 Du        
    336 ****        42.2500  63.7500  58.7500 Du        
    337 ****        42.2500  63.7500  59.0000 Du        
    338 ****        42.2500  63.7500  59.2500 Du        
    339 ****        42.2500  63.7500  59.5000 Du        
    340 ****        42.2500  63.7500  59.7500 Du        
    341 ****        42.2500  63.7500  60.0000 Du        
    342 ****        42.2500  63.7500  60.2500 Du        
    343 ****        42.2500  63.7500  60.5000 Du        
    344 ****        42.2500  63.7500  60.7500 Du        
    345 ****        42.2500  64.0000  57.5000 Du        
    346 ****        42.2500  64.0000  57.7500 Du        
    347 ****        42.2500  64.0000  58.0000 Du        
    348 ****        42.2500  64.0000  58.2500 Du        
    349 ****        42.2500  64.0000  58.5000 Du        
    350 ****        42.2500  64.0000  58.7500 Du        
    351 ****        42.2500  64.0000  59.0000 Du        
    352 ****        42.2500  64.0000  59.2500 Du        
    353 ****        42.2500  64.0000  59.5000 Du        
    354 ****        42.2500  64.0000  59.7500 Du        
    355 ****        42.2500  64.0000  60.0000 Du        
    356 ****        42.2500  64.0000  60.2500 Du        
    357 ****        42.2500  64.0000  60.5000 Du        
    358 ****        42.2500  64.0000  60.7500 Du        
    359 ****        42.2500  64.0000  61.0000 Du        
    360 ****        42.2500  64.2500  57.5000 Du        
    361 ****        42.2500  64.2500  57.7500 Du        
    362 ****        42.2500  64.2500  58.0000 Du        
    363 ****        42.2500  64.2500  58.2500 Du        
    364 ****        42.2500  64.2500  58.5000 Du        
    365 ****        42.2500  64.2500  58.7500 Du        
    366 ****        42.2500  64.2500  59.0000 Du        
    367 ****        42.2500  64.2500  59.2500 Du        
    368 ****        42.2500  64.2500  59.5000 Du        
    369 ****        42.2500  64.2500  59.7500 Du        
    370 ****        42.2500  64.2500  60.0000 Du        
    371 ****        42.2500  64.2500  60.2500 Du        
    372 ****        42.2500  64.2500  60.5000 Du        
    373 ****        42.2500  64.2500  60.7500 Du        
    374 ****        42.2500  64.2500  61.0000 Du        
    375 ****        42.2500  64.5000  57.5000 Du        
    376 ****        42.2500  64.5000  57.7500 Du        
    377 ****        42.2500  64.5000  58.0000 Du        
    378 ****        42.2500  64.5000  58.2500 Du        
    379 ****        42.2500  64.5000  58.5000 Du        
    380 ****        42.2500  64.5000  58.7500 Du        
    381 ****        42.2500  64.5000  59.0000 Du        
    382 ****        42.2500  64.5000  59.2500 Du        
    383 ****        42.2500  64.5000  59.5000 Du        
    384 ****        42.2500  64.5000  59.7500 Du        
    385 ****        42.2500  64.5000  60.0000 Du        
    386 ****        42.2500  64.5000  60.2500 Du        
    387 ****        42.2500  64.5000  60.5000 Du        
    388 ****        42.2500  64.5000  60.7500 Du        
    389 ****        42.2500  64.5000  61.0000 Du        
    390 ****        42.2500  64.7500  57.5000 Du        
    391 ****        42.2500  64.7500  57.7500 Du        
    392 ****        42.2500  64.7500  58.0000 Du        
    393 ****        42.2500  64.7500  58.2500 Du        
    394 ****        42.2500  64.7500  58.5000 Du        
    395 ****        42.2500  64.7500  58.7500 Du        
    396 ****        42.2500  64.7500  59.0000 Du        
    397 ****        42.2500  64.7500  59.2500 Du        
    398 ****        42.2500  64.7500  59.5000 Du        
    399 ****        42.2500  64.7500  59.7500 Du        
    400 ****        42.2500  64.7500  60.0000 Du        
    401 ****        42.2500  64.7500  60.2500 Du        
    402 ****        42.2500  64.7500  60.5000 Du        
    403 ****        42.2500  64.7500  60.7500 Du        
    404 ****        42.2500  64.7500  61.0000 Du        
    405 ****        42.2500  64.7500  61.2500 Du        
    406 ****        42.2500  65.0000  57.5000 Du        
    407 ****        42.2500  65.0000  57.7500 Du        
    408 ****        42.2500  65.0000  58.0000 Du        
    409 ****        42.2500  65.0000  58.2500 Du        
    410 ****        42.2500  65.0000  58.5000 Du        
    411 ****        42.2500  65.0000  58.7500 Du        
    412 ****        42.2500  65.0000  59.0000 Du        
    413 ****        42.2500  65.0000  59.2500 Du        
    414 ****        42.2500  65.0000  59.5000 Du        
    415 ****        42.2500  65.0000  59.7500 Du        
    416 ****        42.2500  65.0000  60.0000 Du        
    417 ****        42.2500  65.0000  60.2500 Du        
    418 ****        42.2500  65.0000  60.5000 Du        
    419 ****        42.2500  65.0000  60.7500 Du        
    420 ****        42.2500  65.0000  61.0000 Du        
    421 ****        42.2500  65.0000  61.2500 Du        
    422 ****        42.2500  65.2500  57.5000 Du        
    423 ****        42.2500  65.2500  57.7500 Du        
    424 ****        42.2500  65.2500  58.0000 Du        
    425 ****        42.2500  65.2500  58.2500 Du        
    426 ****        42.2500  65.2500  58.5000 Du        
    427 ****        42.2500  65.2500  58.7500 Du        
    428 ****        42.2500  65.2500  59.0000 Du        
    429 ****        42.2500  65.2500  59.2500 Du        
    430 ****        42.2500  65.2500  59.5000 Du        
    431 ****        42.2500  65.2500  59.7500 Du        
    432 ****        42.2500  65.2500  60.0000 Du        
    433 ****        42.2500  65.2500  60.2500 Du        
    434 ****        42.2500  65.2500  60.5000 Du        
    435 ****        42.2500  65.2500  60.7500 Du        
    436 ****        42.2500  65.2500  61.0000 Du        
    437 ****        42.2500  65.5000  58.0000 Du        
    438 ****        42.2500  65.5000  58.2500 Du        
    439 ****        42.2500  65.5000  58.5000 Du        
    440 ****        42.2500  65.5000  58.7500 Du        
    441 ****        42.2500  65.5000  59.0000 Du        
    442 ****        42.2500  65.5000  59.2500 Du        
    443 ****        42.2500  65.5000  59.5000 Du        
    444 ****        42.2500  65.5000  59.7500 Du        
    445 ****        42.2500  65.5000  60.0000 Du        
    446 ****        42.2500  65.5000  60.2500 Du        
    447 ****        42.2500  65.7500  58.2500 Du        
    448 ****        42.2500  65.7500  58.5000 Du        
    449 ****        42.2500  65.7500  58.7500 Du        
    450 ****        42.2500  65.7500  59.0000 Du        
    451 ****        42.2500  65.7500  59.2500 Du        
    452 ****        42.2500  67.5000  64.0000 Du        
    453 ****        42.2500  67.5000  64.2500 Du        
    454 ****        42.2500  67.7500  56.2500 Du        
    455 ****        42.2500  67.7500  56.5000 Du        
    456 ****        42.2500  67.7500  64.7500 Du        
    457 ****        42.2500  68.0000  55.7500 Du        
    458 ****        42.2500  68.0000  56.0000 Du        
    459 ****        42.2500  68.0000  56.2500 Du        
    460 ****        42.2500  68.0000  56.5000 Du        
    461 ****        42.2500  68.0000  64.5000 Du        
    462 ****        42.2500  68.0000  64.7500 Du        
    463 ****        42.2500  68.0000  65.0000 Du        
    464 ****        42.2500  68.2500  55.7500 Du        
    465 ****        42.2500  68.2500  56.0000 Du        
    466 ****        42.2500  68.2500  56.2500 Du        
    467 ****        42.2500  68.2500  56.5000 Du        
    468 ****        42.2500  68.2500  64.7500 Du        
    469 ****        42.2500  68.2500  65.0000 Du        
    470 ****        42.2500  68.5000  55.7500 Du        
    471 ****        42.2500  68.5000  56.0000 Du        
    472 ****        42.2500  68.5000  56.2500 Du        
    473 ****        42.2500  68.5000  56.5000 Du        
    474 ****        42.2500  68.7500  55.7500 Du        
    475 ****        42.2500  68.7500  56.0000 Du        
    476 ****        42.2500  68.7500  56.2500 Du        
    477 ****        42.2500  68.7500  56.5000 Du        
    478 ****        42.2500  69.0000  55.7500 Du        
    479 ****        42.2500  69.0000  56.0000 Du        
    480 ****        42.2500  69.0000  56.2500 Du        
    481 ****        42.2500  69.0000  56.5000 Du        
    482 ****        42.2500  69.2500  56.0000 Du        
    483 ****        42.2500  69.2500  56.2500 Du        
    484 ****        42.2500  69.2500  56.5000 Du        
    485 ****        42.2500  69.5000  56.5000 Du        
    486 ****        42.2500  69.7500  65.2500 Du        
    487 ****        42.2500  70.0000  65.0000 Du        
    488 ****        42.2500  70.0000  65.2500 Du        
    489 ****        42.2500  70.2500  65.0000 Du        
    490 ****        42.2500  70.2500  65.2500 Du        
    491 ****        42.2500  70.5000  65.0000 Du        
    492 ****        42.2500  70.5000  65.2500 Du        
    493 ****        42.2500  70.7500  65.2500 Du        
    494 ****        42.5000  55.2500  62.0000 Du        
    495 ****        42.5000  55.2500  62.2500 Du        
    496 ****        42.5000  55.5000  62.0000 Du        
    497 ****        42.5000  55.5000  62.2500 Du        
    498 ****        42.5000  55.5000  62.5000 Du        
    499 ****        42.5000  55.5000  62.7500 Du        
    500 ****        42.5000  55.7500  62.0000 Du        
    501 ****        42.5000  55.7500  62.2500 Du        
    502 ****        42.5000  55.7500  62.5000 Du        
    503 ****        42.5000  55.7500  62.7500 Du        
    504 ****        42.5000  56.0000  62.2500 Du        
    505 ****        42.5000  56.0000  62.5000 Du        
    506 ****        42.5000  56.0000  62.7500 Du        
    507 ****        42.5000  56.0000  63.0000 Du        
    508 ****        42.5000  62.2500  64.2500 Du        
    509 ****        42.5000  62.2500  64.5000 Du        
    510 ****        42.5000  63.5000  58.7500 Du        
    511 ****        42.5000  63.5000  59.0000 Du        
    512 ****        42.5000  63.5000  59.2500 Du        
    513 ****        42.5000  63.5000  59.5000 Du        
    514 ****        42.5000  63.5000  59.7500 Du        
    515 ****        42.5000  63.5000  60.0000 Du        
    516 ****        42.5000  63.7500  58.0000 Du        
    517 ****        42.5000  63.7500  58.2500 Du        
    518 ****        42.5000  63.7500  58.5000 Du        
    519 ****        42.5000  63.7500  58.7500 Du        
    520 ****        42.5000  63.7500  59.0000 Du        
    521 ****        42.5000  63.7500  59.2500 Du        
    522 ****        42.5000  63.7500  59.5000 Du        
    523 ****        42.5000  63.7500  59.7500 Du        
    524 ****        42.5000  63.7500  60.0000 Du        
    525 ****        42.5000  63.7500  60.2500 Du        
    526 ****        42.5000  63.7500  60.5000 Du        
    527 ****        42.5000  63.7500  60.7500 Du        
    528 ****        42.5000  64.0000  57.2500 Du        
    529 ****        42.5000  64.0000  57.5000 Du        
    530 ****        42.5000  64.0000  57.7500 Du        
    531 ****        42.5000  64.0000  58.0000 Du        
    532 ****        42.5000  64.0000  58.2500 Du        
    533 ****        42.5000  64.0000  58.5000 Du        
    534 ****        42.5000  64.0000  58.7500 Du        
    535 ****        42.5000  64.0000  59.0000 Du        
    536 ****        42.5000  64.0000  59.2500 Du        
    537 ****        42.5000  64.0000  59.5000 Du        
    538 ****        42.5000  64.0000  59.7500 Du        
    539 ****        42.5000  64.0000  60.0000 Du        
    540 ****        42.5000  64.0000  60.2500 Du        
    541 ****        42.5000  64.0000  60.5000 Du        
    542 ****        42.5000  64.0000  60.7500 Du        
    543 ****        42.5000  64.2500  57.0000 Du        
    544 ****        42.5000  64.2500  57.2500 Du        
    545 ****        42.5000  64.2500  57.5000 Du        
    546 ****        42.5000  64.2500  57.7500 Du        
    547 ****        42.5000  64.2500  58.0000 Du        
    548 ****        42.5000  64.2500  58.2500 Du        
    549 ****        42.5000  64.2500  58.5000 Du        
    550 ****        42.5000  64.2500  58.7500 Du        
    551 ****        42.5000  64.2500  59.0000 Du        
    552 ****        42.5000  64.2500  59.2500 Du        
    553 ****        42.5000  64.2500  59.5000 Du        
    554 ****        42.5000  64.2500  59.7500 Du        
    555 ****        42.5000  64.2500  60.0000 Du        
    556 ****        42.5000  64.2500  60.2500 Du        
    557 ****        42.5000  64.2500  60.5000 Du        
    558 ****        42.5000  64.2500  60.7500 Du        
    559 ****        42.5000  64.2500  61.0000 Du        
    560 ****        42.5000  64.5000  57.0000 Du        
    561 ****        42.5000  64.5000  57.2500 Du        
    562 ****        42.5000  64.5000  57.5000 Du        
    563 ****        42.5000  64.5000  57.7500 Du        
    564 ****        42.5000  64.5000  58.0000 Du        
    565 ****        42.5000  64.5000  58.2500 Du        
    566 ****        42.5000  64.5000  58.5000 Du        
    567 ****        42.5000  64.5000  58.7500 Du        
    568 ****        42.5000  64.5000  59.0000 Du        
    569 ****        42.5000  64.5000  59.2500 Du        
    570 ****        42.5000  64.5000  59.5000 Du        
    571 ****        42.5000  64.5000  59.7500 Du        
    572 ****        42.5000  64.5000  60.0000 Du        
    573 ****        42.5000  64.5000  60.2500 Du        
    574 ****        42.5000  64.5000  60.5000 Du        
    575 ****        42.5000  64.5000  60.7500 Du        
    576 ****        42.5000  64.5000  61.0000 Du        
    577 ****        42.5000  64.7500  57.0000 Du        
    578 ****        42.5000  64.7500  57.2500 Du        
    579 ****        42.5000  64.7500  57.5000 Du        
    580 ****        42.5000  64.7500  57.7500 Du        
    581 ****        42.5000  64.7500  58.0000 Du        
    582 ****        42.5000  64.7500  58.2500 Du        
    583 ****        42.5000  64.7500  58.5000 Du        
    584 ****        42.5000  64.7500  58.7500 Du        
    585 ****        42.5000  64.7500  59.0000 Du        
    586 ****        42.5000  64.7500  59.2500 Du        
    587 ****        42.5000  64.7500  59.5000 Du        
    588 ****        42.5000  64.7500  59.7500 Du        
    589 ****        42.5000  64.7500  60.0000 Du        
    590 ****        42.5000  64.7500  60.2500 Du        
    591 ****        42.5000  64.7500  60.5000 Du        
    592 ****        42.5000  64.7500  60.7500 Du        
    593 ****        42.5000  64.7500  61.0000 Du        
    594 ****        42.5000  65.0000  57.2500 Du        
    595 ****        42.5000  65.0000  57.5000 Du        
    596 ****        42.5000  65.0000  57.7500 Du        
    597 ****        42.5000  65.0000  58.0000 Du        
    598 ****        42.5000  65.0000  58.2500 Du        
    599 ****        42.5000  65.0000  58.5000 Du        
    600 ****        42.5000  65.0000  58.7500 Du        
    601 ****        42.5000  65.0000  59.0000 Du        
    602 ****        42.5000  65.0000  59.2500 Du        
    603 ****        42.5000  65.0000  59.5000 Du        
    604 ****        42.5000  65.0000  59.7500 Du        
    605 ****        42.5000  65.0000  60.0000 Du        
    606 ****        42.5000  65.0000  60.2500 Du        
    607 ****        42.5000  65.0000  60.5000 Du        
    608 ****        42.5000  65.0000  60.7500 Du        
    609 ****        42.5000  65.0000  61.0000 Du        
    610 ****        42.5000  65.2500  57.5000 Du        
    611 ****        42.5000  65.2500  57.7500 Du        
    612 ****        42.5000  65.2500  58.0000 Du        
    613 ****        42.5000  65.2500  58.2500 Du        
    614 ****        42.5000  65.2500  58.5000 Du        
    615 ****        42.5000  65.2500  58.7500 Du        
    616 ****        42.5000  65.2500  59.0000 Du        
    617 ****        42.5000  65.2500  59.2500 Du        
    618 ****        42.5000  65.2500  59.5000 Du        
    619 ****        42.5000  65.2500  59.7500 Du        
    620 ****        42.5000  65.2500  60.0000 Du        
    621 ****        42.5000  65.2500  60.2500 Du        
    622 ****        42.5000  65.2500  60.5000 Du        
    623 ****        42.5000  65.2500  60.7500 Du        
    624 ****        42.5000  65.2500  61.0000 Du        
    625 ****        42.5000  65.5000  57.7500 Du        
    626 ****        42.5000  65.5000  58.0000 Du        
    627 ****        42.5000  65.5000  58.2500 Du        
    628 ****        42.5000  65.5000  58.5000 Du        
    629 ****        42.5000  65.5000  58.7500 Du        
    630 ****        42.5000  65.5000  59.0000 Du        
    631 ****        42.5000  65.5000  59.2500 Du        
    632 ****        42.5000  65.5000  59.5000 Du        
    633 ****        42.5000  65.5000  59.7500 Du        
    634 ****        42.5000  65.5000  60.0000 Du        
    635 ****        42.5000  65.5000  60.2500 Du        
    636 ****        42.5000  65.5000  60.5000 Du        
    637 ****        42.5000  65.5000  60.7500 Du        
    638 ****        42.5000  65.7500  58.0000 Du        
    639 ****        42.5000  65.7500  58.2500 Du        
    640 ****        42.5000  65.7500  58.5000 Du        
    641 ****        42.5000  65.7500  58.7500 Du        
    642 ****        42.5000  65.7500  59.0000 Du        
    643 ****        42.5000  65.7500  59.2500 Du        
    644 ****        42.5000  65.7500  59.5000 Du        
    645 ****        42.5000  65.7500  59.7500 Du        
    646 ****        42.5000  65.7500  60.0000 Du        
    647 ****        42.5000  66.7500  63.2500 Du        
    648 ****        42.5000  66.7500  63.5000 Du        
    649 ****        42.5000  66.7500  63.7500 Du        
    650 ****        42.5000  67.0000  63.2500 Du        
    651 ****        42.5000  67.0000  63.5000 Du        
    652 ****        42.5000  67.0000  63.7500 Du        
    653 ****        42.5000  67.0000  64.0000 Du        
    654 ****        42.5000  67.0000  64.2500 Du        
    655 ****        42.5000  67.2500  63.2500 Du        
    656 ****        42.5000  67.2500  63.5000 Du        
    657 ****        42.5000  67.2500  63.7500 Du        
    658 ****        42.5000  67.2500  64.0000 Du        
    659 ****        42.5000  67.2500  64.2500 Du        
    660 ****        42.5000  67.2500  64.5000 Du        
    661 ****        42.5000  67.5000  63.7500 Du        
    662 ****        42.5000  67.5000  64.0000 Du        
    663 ****        42.5000  67.5000  64.2500 Du        
    664 ****        42.5000  67.5000  64.5000 Du        
    665 ****        42.5000  67.5000  64.7500 Du        
    666 ****        42.5000  67.7500  56.0000 Du        
    667 ****        42.5000  67.7500  64.0000 Du        
    668 ****        42.5000  67.7500  64.2500 Du        
    669 ****        42.5000  67.7500  64.5000 Du        
    670 ****        42.5000  67.7500  64.7500 Du        
    671 ****        42.5000  67.7500  65.0000 Du        
    672 ****        42.5000  68.0000  55.7500 Du        
    673 ****        42.5000  68.0000  56.0000 Du        
    674 ****        42.5000  68.0000  56.2500 Du        
    675 ****        42.5000  68.0000  56.5000 Du        
    676 ****        42.5000  68.0000  64.5000 Du        
    677 ****        42.5000  68.0000  64.7500 Du        
    678 ****        42.5000  68.2500  55.7500 Du        
    679 ****        42.5000  68.2500  56.0000 Du        
    680 ****        42.5000  68.2500  56.2500 Du        
    681 ****        42.5000  68.2500  56.5000 Du        
    682 ****        42.5000  68.2500  56.7500 Du        
    683 ****        42.5000  68.2500  64.7500 Du        
    684 ****        42.5000  68.5000  55.7500 Du        
    685 ****        42.5000  68.5000  56.0000 Du        
    686 ****        42.5000  68.5000  56.2500 Du        
    687 ****        42.5000  68.5000  56.5000 Du        
    688 ****        42.5000  68.5000  56.7500 Du        
    689 ****        42.5000  68.7500  55.7500 Du        
    690 ****        42.5000  68.7500  56.0000 Du        
    691 ****        42.5000  68.7500  56.2500 Du        
    692 ****        42.5000  68.7500  56.5000 Du        
    693 ****        42.5000  68.7500  56.7500 Du        
    694 ****        42.5000  69.0000  55.7500 Du        
    695 ****        42.5000  69.0000  56.0000 Du        
    696 ****        42.5000  69.0000  56.2500 Du        
    697 ****        42.5000  69.0000  56.5000 Du        
    698 ****        42.5000  69.0000  56.7500 Du        
    699 ****        42.5000  69.2500  56.0000 Du        
    700 ****        42.5000  69.2500  56.2500 Du        
    701 ****        42.5000  69.2500  56.5000 Du        
    702 ****        42.5000  69.2500  56.7500 Du        
    703 ****        42.5000  69.5000  56.5000 Du        
    704 ****        42.7500  55.0000  62.2500 Du        
    705 ****        42.7500  55.2500  62.2500 Du        
    706 ****        42.7500  55.5000  62.0000 Du        
    707 ****        42.7500  55.5000  62.2500 Du        
    708 ****        42.7500  55.5000  62.5000 Du        
    709 ****        42.7500  55.5000  62.7500 Du        
    710 ****        42.7500  55.7500  62.2500 Du        
    711 ****        42.7500  55.7500  62.5000 Du        
    712 ****        42.7500  55.7500  62.7500 Du        
    713 ****        42.7500  55.7500  63.0000 Du        
    714 ****        42.7500  56.0000  62.5000 Du        
    715 ****        42.7500  56.0000  62.7500 Du        
    716 ****        42.7500  63.5000  59.0000 Du        
    717 ****        42.7500  63.5000  59.2500 Du        
    718 ****        42.7500  63.5000  59.5000 Du        
    719 ****        42.7500  63.5000  59.7500 Du        
    720 ****        42.7500  63.5000  60.0000 Du        
    721 ****        42.7500  63.7500  58.5000 Du        
    722 ****        42.7500  63.7500  58.7500 Du        
    723 ****        42.7500  63.7500  59.0000 Du        
    724 ****        42.7500  63.7500  59.2500 Du        
    725 ****        42.7500  63.7500  59.5000 Du        
    726 ****        42.7500  63.7500  59.7500 Du        
    727 ****        42.7500  63.7500  60.0000 Du        
    728 ****        42.7500  63.7500  60.2500 Du        
    729 ****        42.7500  63.7500  60.5000 Du        
    730 ****        42.7500  64.0000  57.7500 Du        
    731 ****        42.7500  64.0000  58.0000 Du        
    732 ****        42.7500  64.0000  58.2500 Du        
    733 ****        42.7500  64.0000  58.5000 Du        
    734 ****        42.7500  64.0000  58.7500 Du        
    735 ****        42.7500  64.0000  59.0000 Du        
    736 ****        42.7500  64.0000  59.2500 Du        
    737 ****        42.7500  64.0000  59.5000 Du        
    738 ****        42.7500  64.0000  59.7500 Du        
    739 ****        42.7500  64.0000  60.0000 Du        
    740 ****        42.7500  64.0000  60.2500 Du        
    741 ****        42.7500  64.0000  60.5000 Du        
    742 ****        42.7500  64.0000  60.7500 Du        
    743 ****        42.7500  64.2500  57.5000 Du        
    744 ****        42.7500  64.2500  57.7500 Du        
    745 ****        42.7500  64.2500  58.0000 Du        
    746 ****        42.7500  64.2500  58.2500 Du        
    747 ****        42.7500  64.2500  58.5000 Du        
    748 ****        42.7500  64.2500  58.7500 Du        
    749 ****        42.7500  64.2500  59.0000 Du        
    750 ****        42.7500  64.2500  59.2500 Du        
    751 ****        42.7500  64.2500  59.5000 Du        
    752 ****        42.7500  64.2500  59.7500 Du        
    753 ****        42.7500  64.2500  60.0000 Du        
    754 ****        42.7500  64.2500  60.2500 Du        
    755 ****        42.7500  64.2500  60.5000 Du        
    756 ****        42.7500  64.2500  60.7500 Du        
    757 ****        42.7500  64.5000  57.2500 Du        
    758 ****        42.7500  64.5000  57.5000 Du        
    759 ****        42.7500  64.5000  57.7500 Du        
    760 ****        42.7500  64.5000  58.0000 Du        
    761 ****        42.7500  64.5000  58.2500 Du        
    762 ****        42.7500  64.5000  58.5000 Du        
    763 ****        42.7500  64.5000  58.7500 Du        
    764 ****        42.7500  64.5000  59.0000 Du        
    765 ****        42.7500  64.5000  59.2500 Du        
    766 ****        42.7500  64.5000  59.5000 Du        
    767 ****        42.7500  64.5000  59.7500 Du        
    768 ****        42.7500  64.5000  60.0000 Du        
    769 ****        42.7500  64.5000  60.2500 Du        
    770 ****        42.7500  64.5000  60.5000 Du        
    771 ****        42.7500  64.5000  60.7500 Du        
    772 ****        42.7500  64.7500  57.5000 Du        
    773 ****        42.7500  64.7500  57.7500 Du        
    774 ****        42.7500  64.7500  58.0000 Du        
    775 ****        42.7500  64.7500  58.2500 Du        
    776 ****        42.7500  64.7500  58.5000 Du        
    777 ****        42.7500  64.7500  58.7500 Du        
    778 ****        42.7500  64.7500  59.0000 Du        
    779 ****        42.7500  64.7500  59.2500 Du        
    780 ****        42.7500  64.7500  59.5000 Du        
    781 ****        42.7500  64.7500  59.7500 Du        
    782 ****        42.7500  64.7500  60.0000 Du        
    783 ****        42.7500  64.7500  60.2500 Du        
    784 ****        42.7500  64.7500  60.5000 Du        
    785 ****        42.7500  64.7500  60.7500 Du        
    786 ****        42.7500  65.0000  57.5000 Du        
    787 ****        42.7500  65.0000  57.7500 Du        
    788 ****        42.7500  65.0000  58.0000 Du        
    789 ****        42.7500  65.0000  58.2500 Du        
    790 ****        42.7500  65.0000  58.5000 Du        
    791 ****        42.7500  65.0000  58.7500 Du        
    792 ****        42.7500  65.0000  59.0000 Du        
    793 ****        42.7500  65.0000  59.2500 Du        
    794 ****        42.7500  65.0000  59.5000 Du        
    795 ****        42.7500  65.0000  59.7500 Du        
    796 ****        42.7500  65.0000  60.0000 Du        
    797 ****        42.7500  65.0000  60.2500 Du        
    798 ****        42.7500  65.0000  60.5000 Du        
    799 ****        42.7500  65.0000  60.7500 Du        
    800 ****        42.7500  65.2500  57.7500 Du        
    801 ****        42.7500  65.2500  58.0000 Du        
    802 ****        42.7500  65.2500  58.2500 Du        
    803 ****        42.7500  65.2500  58.5000 Du        
    804 ****        42.7500  65.2500  58.7500 Du        
    805 ****        42.7500  65.2500  59.0000 Du        
    806 ****        42.7500  65.2500  59.2500 Du        
    807 ****        42.7500  65.2500  59.5000 Du        
    808 ****        42.7500  65.2500  59.7500 Du        
    809 ****        42.7500  65.2500  60.0000 Du        
    810 ****        42.7500  65.2500  60.2500 Du        
    811 ****        42.7500  65.2500  60.5000 Du        
    812 ****        42.7500  65.2500  60.7500 Du        
    813 ****        42.7500  65.5000  58.2500 Du        
    814 ****        42.7500  65.5000  58.5000 Du        
    815 ****        42.7500  65.5000  58.7500 Du        
    816 ****        42.7500  65.5000  59.0000 Du        
    817 ****        42.7500  65.5000  59.2500 Du        
    818 ****        42.7500  65.5000  59.5000 Du        
    819 ****        42.7500  65.5000  59.7500 Du        
    820 ****        42.7500  65.5000  60.0000 Du        
    821 ****        42.7500  65.5000  60.2500 Du        
    822 ****        42.7500  65.7500  58.2500 Du        
    823 ****        42.7500  65.7500  58.5000 Du        
    824 ****        42.7500  65.7500  58.7500 Du        
    825 ****        42.7500  65.7500  59.0000 Du        
    826 ****        42.7500  65.7500  59.2500 Du        
    827 ****        42.7500  65.7500  59.5000 Du        
    828 ****        42.7500  65.7500  59.7500 Du        
    829 ****        42.7500  66.5000  63.5000 Du        
    830 ****        42.7500  66.7500  63.0000 Du        
    831 ****        42.7500  66.7500  63.2500 Du        
    832 ****        42.7500  66.7500  63.5000 Du        
    833 ****        42.7500  66.7500  63.7500 Du        
    834 ****        42.7500  66.7500  64.0000 Du        
    835 ****        42.7500  66.7500  64.2500 Du        
    836 ****        42.7500  67.0000  63.0000 Du        
    837 ****        42.7500  67.0000  63.2500 Du        
    838 ****        42.7500  67.0000  63.5000 Du        
    839 ****        42.7500  67.0000  63.7500 Du        
    840 ****        42.7500  67.0000  64.0000 Du        
    841 ****        42.7500  67.0000  64.2500 Du        
    842 ****        42.7500  67.0000  64.5000 Du        
    843 ****        42.7500  67.0000  64.7500 Du        
    844 ****        42.7500  67.2500  63.2500 Du        
    845 ****        42.7500  67.2500  63.5000 Du        
    846 ****        42.7500  67.2500  63.7500 Du        
    847 ****        42.7500  67.2500  64.0000 Du        
    848 ****        42.7500  67.2500  64.2500 Du        
    849 ****        42.7500  67.2500  64.5000 Du        
    850 ****        42.7500  67.2500  64.7500 Du        
    851 ****        42.7500  67.5000  63.7500 Du        
    852 ****        42.7500  67.5000  64.0000 Du        
    853 ****        42.7500  67.5000  64.2500 Du        
    854 ****        42.7500  67.5000  64.5000 Du        
    855 ****        42.7500  67.5000  64.7500 Du        
    856 ****        42.7500  67.7500  64.2500 Du        
    857 ****        42.7500  67.7500  64.5000 Du        
    858 ****        42.7500  67.7500  64.7500 Du        
    859 ****        42.7500  68.0000  64.5000 Du        
    860 ****        42.7500  68.0000  64.7500 Du        
    861 ****        42.7500  68.2500  55.7500 Du        
    862 ****        42.7500  68.2500  56.0000 Du        
    863 ****        42.7500  68.2500  56.2500 Du        
    864 ****        42.7500  68.2500  56.5000 Du        
    865 ****        42.7500  68.5000  56.0000 Du        
    866 ****        42.7500  68.5000  56.2500 Du        
    867 ****        42.7500  68.5000  56.5000 Du        
    868 ****        42.7500  68.5000  56.7500 Du        
    869 ****        42.7500  68.7500  56.0000 Du        
    870 ****        42.7500  68.7500  56.2500 Du        
    871 ****        42.7500  68.7500  56.5000 Du        
    872 ****        42.7500  68.7500  56.7500 Du        
    873 ****        42.7500  69.0000  56.0000 Du        
    874 ****        42.7500  69.0000  56.2500 Du        
    875 ****        42.7500  69.0000  56.5000 Du        
    876 ****        42.7500  69.0000  56.7500 Du        
    877 ****        42.7500  69.2500  56.2500 Du        
    878 ****        42.7500  69.2500  56.5000 Du        
    879 ****        42.7500  69.2500  56.7500 Du        
    880 ****        42.7500  75.5000  59.7500 Du        
    881 ****        43.0000  63.5000  59.5000 Du        
    882 ****        43.0000  63.5000  59.7500 Du        
    883 ****        43.0000  63.7500  59.0000 Du        
    884 ****        43.0000  63.7500  59.2500 Du        
    885 ****        43.0000  63.7500  59.5000 Du        
    886 ****        43.0000  63.7500  59.7500 Du        
    887 ****        43.0000  63.7500  60.0000 Du        
    888 ****        43.0000  63.7500  60.2500 Du        
    889 ****        43.0000  64.0000  58.5000 Du        
    890 ****        43.0000  64.0000  58.7500 Du        
    891 ****        43.0000  64.0000  59.0000 Du        
    892 ****        43.0000  64.0000  59.2500 Du        
    893 ****        43.0000  64.0000  59.5000 Du        
    894 ****        43.0000  64.0000  59.7500 Du        
    895 ****        43.0000  64.0000  60.0000 Du        
    896 ****        43.0000  64.0000  60.2500 Du        
    897 ****        43.0000  64.0000  60.5000 Du        
    898 ****        43.0000  64.2500  58.0000 Du        
    899 ****        43.0000  64.2500  58.2500 Du        
    900 ****        43.0000  64.2500  58.5000 Du        
    901 ****        43.0000  64.2500  58.7500 Du        
    902 ****        43.0000  64.2500  59.0000 Du        
    903 ****        43.0000  64.2500  59.2500 Du        
    904 ****        43.0000  64.2500  59.5000 Du        
    905 ****        43.0000  64.2500  59.7500 Du        
    906 ****        43.0000  64.2500  60.0000 Du        
    907 ****        43.0000  64.2500  60.2500 Du        
    908 ****        43.0000  64.2500  60.5000 Du        
    909 ****        43.0000  64.5000  57.7500 Du        
    910 ****        43.0000  64.5000  58.0000 Du        
    911 ****        43.0000  64.5000  58.2500 Du        
    912 ****        43.0000  64.5000  58.5000 Du        
    913 ****        43.0000  64.5000  58.7500 Du        
    914 ****        43.0000  64.5000  59.0000 Du        
    915 ****        43.0000  64.5000  59.2500 Du        
    916 ****        43.0000  64.5000  59.5000 Du        
    917 ****        43.0000  64.5000  59.7500 Du        
    918 ****        43.0000  64.5000  60.0000 Du        
    919 ****        43.0000  64.5000  60.2500 Du        
    920 ****        43.0000  64.5000  60.5000 Du        
    921 ****        43.0000  64.7500  57.7500 Du        
    922 ****        43.0000  64.7500  58.0000 Du        
    923 ****        43.0000  64.7500  58.2500 Du        
    924 ****        43.0000  64.7500  58.5000 Du        
    925 ****        43.0000  64.7500  58.7500 Du        
    926 ****        43.0000  64.7500  59.0000 Du        
    927 ****        43.0000  64.7500  59.2500 Du        
    928 ****        43.0000  64.7500  59.5000 Du        
    929 ****        43.0000  64.7500  59.7500 Du        
    930 ****        43.0000  64.7500  60.0000 Du        
    931 ****        43.0000  64.7500  60.2500 Du        
    932 ****        43.0000  64.7500  60.5000 Du        
    933 ****        43.0000  64.7500  66.0000 Du        
    934 ****        43.0000  64.7500  66.2500 Du        
    935 ****        43.0000  65.0000  58.0000 Du        
    936 ****        43.0000  65.0000  58.2500 Du        
    937 ****        43.0000  65.0000  58.5000 Du        
    938 ****        43.0000  65.0000  58.7500 Du        
    939 ****        43.0000  65.0000  59.0000 Du        
    940 ****        43.0000  65.0000  59.2500 Du        
    941 ****        43.0000  65.0000  59.5000 Du        
    942 ****        43.0000  65.0000  59.7500 Du        
    943 ****        43.0000  65.0000  60.0000 Du        
    944 ****        43.0000  65.0000  60.2500 Du        
    945 ****        43.0000  65.0000  66.0000 Du        
    946 ****        43.0000  65.0000  66.2500 Du        
    947 ****        43.0000  65.0000  66.5000 Du        
    948 ****        43.0000  65.0000  66.7500 Du        
    949 ****        43.0000  65.2500  58.2500 Du        
    950 ****        43.0000  65.2500  58.5000 Du        
    951 ****        43.0000  65.2500  58.7500 Du        
    952 ****        43.0000  65.2500  59.0000 Du        
    953 ****        43.0000  65.2500  59.2500 Du        
    954 ****        43.0000  65.2500  59.5000 Du        
    955 ****        43.0000  65.2500  59.7500 Du        
    956 ****        43.0000  65.2500  60.0000 Du        
    957 ****        43.0000  65.2500  60.2500 Du        
    958 ****        43.0000  65.2500  66.2500 Du        
    959 ****        43.0000  65.2500  66.7500 Du        
    960 ****        43.0000  65.5000  58.5000 Du        
    961 ****        43.0000  65.5000  58.7500 Du        
    962 ****        43.0000  65.5000  59.0000 Du        
    963 ****        43.0000  65.5000  59.2500 Du        
    964 ****        43.0000  65.5000  59.5000 Du        
    965 ****        43.0000  65.5000  59.7500 Du        
    966 ****        43.0000  65.7500  58.7500 Du        
    967 ****        43.0000  65.7500  59.0000 Du        
    968 ****        43.0000  65.7500  59.2500 Du        
    969 ****        43.0000  66.5000  64.0000 Du        
    970 ****        43.0000  66.5000  64.2500 Du        
    971 ****        43.0000  66.7500  63.0000 Du        
    972 ****        43.0000  66.7500  63.2500 Du        
    973 ****        43.0000  66.7500  63.5000 Du        
    974 ****        43.0000  66.7500  63.7500 Du        
    975 ****        43.0000  66.7500  64.0000 Du        
    976 ****        43.0000  66.7500  64.2500 Du        
    977 ****        43.0000  66.7500  64.5000 Du        
    978 ****        43.0000  67.0000  63.0000 Du        
    979 ****        43.0000  67.0000  63.2500 Du        
    980 ****        43.0000  67.0000  63.5000 Du        
    981 ****        43.0000  67.0000  63.7500 Du        
    982 ****        43.0000  67.0000  64.0000 Du        
    983 ****        43.0000  67.0000  64.2500 Du        
    984 ****        43.0000  67.0000  64.5000 Du        
    985 ****        43.0000  67.0000  64.7500 Du        
    986 ****        43.0000  67.2500  63.2500 Du        
    987 ****        43.0000  67.2500  63.5000 Du        
    988 ****        43.0000  67.2500  63.7500 Du        
    989 ****        43.0000  67.2500  64.0000 Du        
    990 ****        43.0000  67.2500  64.2500 Du        
    991 ****        43.0000  67.2500  64.5000 Du        
    992 ****        43.0000  67.5000  63.7500 Du        
    993 ****        43.0000  67.5000  64.0000 Du        
    994 ****        43.0000  67.5000  64.2500 Du        
    995 ****        43.0000  67.5000  64.5000 Du        
    996 ****        43.0000  67.5000  64.7500 Du        
    997 ****        43.0000  67.7500  64.2500 Du        
    998 ****        43.0000  67.7500  64.5000 Du        
    999 ****        43.0000  67.7500  64.7500 Du        
   1000 ****        43.0000  68.7500  56.2500 Du        
   1001 ****        43.0000  68.7500  56.5000 Du        
   1002 ****        43.0000  68.7500  56.7500 Du        
   1003 ****        43.0000  69.0000  56.2500 Du        
   1004 ****        43.0000  69.0000  56.5000 Du        
   1005 ****        43.0000  69.0000  56.7500 Du        
   1006 ****        43.0000  69.2500  56.5000 Du        
   1007 ****        43.0000  69.2500  56.7500 Du        
   1008 ****        43.0000  75.2500  59.7500 Du        
   1009 ****        43.0000  75.5000  59.5000 Du        
   1010 ****        43.0000  75.5000  59.7500 Du        
   1011 ****        43.0000  75.5000  60.0000 Du        
   1012 ****        43.0000  75.7500  59.5000 Du        
   1013 ****        43.0000  75.7500  59.7500 Du        
   1014 ****        43.2500  63.7500  59.5000 Du        
   1015 ****        43.2500  63.7500  59.7500 Du        
   1016 ****        43.2500  63.7500  60.0000 Du        
   1017 ****        43.2500  64.0000  59.0000 Du        
   1018 ****        43.2500  64.0000  59.2500 Du        
   1019 ****        43.2500  64.0000  59.5000 Du        
   1020 ****        43.2500  64.0000  59.7500 Du        
   1021 ****        43.2500  64.0000  60.0000 Du        
   1022 ****        43.2500  64.0000  60.2500 Du        
   1023 ****        43.2500  64.2500  58.7500 Du        
   1024 ****        43.2500  64.2500  59.0000 Du        
   1025 ****        43.2500  64.2500  59.2500 Du        
   1026 ****        43.2500  64.2500  59.5000 Du        
   1027 ****        43.2500  64.2500  59.7500 Du        
   1028 ****        43.2500  64.2500  60.0000 Du        
   1029 ****        43.2500  64.2500  60.2500 Du        
   1030 ****        43.2500  64.5000  58.5000 Du        
   1031 ****        43.2500  64.5000  58.7500 Du        
   1032 ****        43.2500  64.5000  59.0000 Du        
   1033 ****        43.2500  64.5000  59.2500 Du        
   1034 ****        43.2500  64.5000  59.5000 Du        
   1035 ****        43.2500  64.5000  59.7500 Du        
   1036 ****        43.2500  64.5000  60.0000 Du        
   1037 ****        43.2500  64.5000  60.2500 Du        
   1038 ****        43.2500  64.7500  58.2500 Du        
   1039 ****        43.2500  64.7500  58.5000 Du        
   1040 ****        43.2500  64.7500  58.7500 Du        
   1041 ****        43.2500  64.7500  59.0000 Du        
   1042 ****        43.2500  64.7500  59.2500 Du        
   1043 ****        43.2500  64.7500  59.5000 Du        
   1044 ****        43.2500  64.7500  59.7500 Du        
   1045 ****        43.2500  64.7500  60.0000 Du        
   1046 ****        43.2500  64.7500  65.7500 Du        
   1047 ****        43.2500  64.7500  66.0000 Du        
   1048 ****        43.2500  64.7500  66.2500 Du        
   1049 ****        43.2500  64.7500  66.5000 Du        
   1050 ****        43.2500  64.7500  66.7500 Du        
   1051 ****        43.2500  65.0000  58.2500 Du        
   1052 ****        43.2500  65.0000  58.5000 Du        
   1053 ****        43.2500  65.0000  58.7500 Du        
   1054 ****        43.2500  65.0000  59.0000 Du        
   1055 ****        43.2500  65.0000  59.2500 Du        
   1056 ****        43.2500  65.0000  59.5000 Du        
   1057 ****        43.2500  65.0000  59.7500 Du        
   1058 ****        43.2500  65.0000  60.0000 Du        
   1059 ****        43.2500  65.0000  65.7500 Du        
   1060 ****        43.2500  65.0000  66.0000 Du        
   1061 ****        43.2500  65.0000  66.2500 Du        
   1062 ****        43.2500  65.0000  66.5000 Du        
   1063 ****        43.2500  65.0000  66.7500 Du        
   1064 ****        43.2500  65.2500  58.5000 Du        
   1065 ****        43.2500  65.2500  58.7500 Du        
   1066 ****        43.2500  65.2500  59.0000 Du        
   1067 ****        43.2500  65.2500  59.2500 Du        
   1068 ****        43.2500  65.2500  59.5000 Du        
   1069 ****        43.2500  65.2500  65.7500 Du        
   1070 ****        43.2500  65.2500  66.0000 Du        
   1071 ****        43.2500  65.2500  66.2500 Du        
   1072 ****        43.2500  65.2500  66.5000 Du        
   1073 ****        43.2500  65.2500  66.7500 Du        
   1074 ****        43.2500  65.5000  59.0000 Du        
   1075 ****        43.2500  65.5000  59.2500 Du        
   1076 ****        43.2500  66.5000  64.2500 Du        
   1077 ****        43.2500  66.7500  63.5000 Du        
   1078 ****        43.2500  66.7500  63.7500 Du        
   1079 ****        43.2500  66.7500  64.0000 Du        
   1080 ****        43.2500  66.7500  64.2500 Du        
   1081 ****        43.2500  66.7500  64.5000 Du        
   1082 ****        43.2500  66.7500  64.7500 Du        
   1083 ****        43.2500  67.0000  63.2500 Du        
   1084 ****        43.2500  67.0000  63.5000 Du        
   1085 ****        43.2500  67.0000  63.7500 Du        
   1086 ****        43.2500  67.0000  64.0000 Du        
   1087 ****        43.2500  67.0000  64.2500 Du        
   1088 ****        43.2500  67.0000  64.5000 Du        
   1089 ****        43.2500  67.0000  64.7500 Du        
   1090 ****        43.2500  67.2500  63.5000 Du        
   1091 ****        43.2500  67.2500  63.7500 Du        
   1092 ****        43.2500  67.2500  64.0000 Du        
   1093 ****        43.2500  67.2500  64.2500 Du        
   1094 ****        43.2500  67.2500  64.5000 Du        
   1095 ****        43.2500  67.5000  64.0000 Du        
   1096 ****        43.2500  67.5000  64.2500 Du        
   1097 ****        43.2500  67.5000  64.5000 Du        
   1098 ****        43.2500  75.5000  59.5000 Du        
   1099 ****        43.2500  75.5000  59.7500 Du        
   1100 ****        43.2500  75.7500  59.5000 Du        
   1101 ****        43.2500  75.7500  59.7500 Du        
   1102 ****        43.2500  75.7500  60.0000 Du        
   1103 ****        43.2500  75.7500  60.2500 Du        
   1104 ****        43.2500  76.0000  59.5000 Du        
   1105 ****        43.2500  76.0000  59.7500 Du        
   1106 ****        43.5000  64.0000  59.7500 Du        
   1107 ****        43.5000  64.2500  59.2500 Du        
   1108 ****        43.5000  64.2500  59.5000 Du        
   1109 ****        43.5000  64.2500  59.7500 Du        
   1110 ****        43.5000  64.5000  59.0000 Du        
   1111 ****        43.5000  64.5000  59.2500 Du        
   1112 ****        43.5000  64.5000  59.5000 Du        
   1113 ****        43.5000  64.5000  59.7500 Du        
   1114 ****        43.5000  64.5000  66.0000 Du        
   1115 ****        43.5000  64.5000  66.2500 Du        
   1116 ****        43.5000  64.7500  58.7500 Du        
   1117 ****        43.5000  64.7500  59.0000 Du        
   1118 ****        43.5000  64.7500  59.2500 Du        
   1119 ****        43.5000  64.7500  59.5000 Du        
   1120 ****        43.5000  64.7500  65.7500 Du        
   1121 ****        43.5000  64.7500  66.0000 Du        
   1122 ****        43.5000  64.7500  66.2500 Du        
   1123 ****        43.5000  64.7500  66.5000 Du        
   1124 ****        43.5000  64.7500  66.7500 Du        
   1125 ****        43.5000  65.0000  58.7500 Du        
   1126 ****        43.5000  65.0000  59.0000 Du        
   1127 ****        43.5000  65.0000  59.2500 Du        
   1128 ****        43.5000  65.0000  59.5000 Du        
   1129 ****        43.5000  65.0000  65.7500 Du        
   1130 ****        43.5000  65.0000  66.0000 Du        
   1131 ****        43.5000  65.0000  66.2500 Du        
   1132 ****        43.5000  65.0000  66.5000 Du        
   1133 ****        43.5000  65.0000  66.7500 Du        
   1134 ****        43.5000  65.2500  59.0000 Du        
   1135 ****        43.5000  65.2500  65.7500 Du        
   1136 ****        43.5000  65.2500  66.0000 Du        
   1137 ****        43.5000  65.2500  66.2500 Du        
   1138 ****        43.5000  65.2500  66.5000 Du        
   1139 ****        43.5000  65.2500  66.7500 Du        
   1140 ****        43.5000  65.5000  65.5000 Du        
   1141 ****        43.5000  65.5000  65.7500 Du        
   1142 ****        43.5000  65.5000  66.0000 Du        
   1143 ****        43.5000  65.5000  66.2500 Du        
   1144 ****        43.5000  65.5000  66.5000 Du        
   1145 ****        43.5000  65.5000  66.7500 Du        
   1146 ****        43.5000  65.7500  65.5000 Du        
   1147 ****        43.5000  65.7500  65.7500 Du        
   1148 ****        43.5000  66.0000  65.0000 Du        
   1149 ****        43.5000  66.2500  64.7500 Du        
   1150 ****        43.5000  66.2500  65.0000 Du        
   1151 ****        43.5000  66.5000  64.2500 Du        
   1152 ****        43.5000  66.5000  64.5000 Du        
   1153 ****        43.5000  66.5000  64.7500 Du        
   1154 ****        43.5000  66.5000  65.0000 Du        
   1155 ****        43.5000  66.7500  63.7500 Du        
   1156 ****        43.5000  66.7500  64.0000 Du        
   1157 ****        43.5000  66.7500  64.2500 Du        
   1158 ****        43.5000  66.7500  64.5000 Du        
   1159 ****        43.5000  66.7500  64.7500 Du        
   1160 ****        43.5000  67.0000  63.2500 Du        
   1161 ****        43.5000  67.0000  63.5000 Du        
   1162 ****        43.5000  67.0000  63.7500 Du        
   1163 ****        43.5000  67.0000  64.0000 Du        
   1164 ****        43.5000  67.0000  64.2500 Du        
   1165 ****        43.5000  67.0000  64.5000 Du        
   1166 ****        43.5000  67.0000  64.7500 Du        
   1167 ****        43.5000  67.2500  63.7500 Du        
   1168 ****        43.5000  67.2500  64.0000 Du        
   1169 ****        43.5000  67.2500  64.2500 Du        
   1170 ****        43.5000  67.2500  64.5000 Du        
   1171 ****        43.5000  67.5000  64.2500 Du        
   1172 ****        43.5000  75.7500  59.2500 Du        
   1173 ****        43.5000  75.7500  59.5000 Du        
   1174 ****        43.5000  75.7500  59.7500 Du        
   1175 ****        43.5000  75.7500  60.0000 Du        
   1176 ****        43.5000  75.7500  60.2500 Du        
   1177 ****        43.5000  76.0000  59.2500 Du        
   1178 ****        43.5000  76.0000  59.5000 Du        
   1179 ****        43.5000  76.0000  59.7500 Du        
   1180 ****        43.5000  76.0000  60.0000 Du        
   1181 ****        43.5000  76.0000  60.2500 Du        
   1182 ****        43.5000  76.0000  60.5000 Du        
   1183 ****        43.5000  76.2500  59.5000 Du        
   1184 ****        43.7500  58.5000  54.5000 Du        
   1185 ****        43.7500  58.7500  54.2500 Du        
   1186 ****        43.7500  58.7500  54.5000 Du        
   1187 ****        43.7500  58.7500  54.7500 Du        
   1188 ****        43.7500  59.0000  54.5000 Du        
   1189 ****        43.7500  59.0000  54.7500 Du        
   1190 ****        43.7500  59.2500  54.2500 Du        
   1191 ****        43.7500  59.2500  54.5000 Du        
   1192 ****        43.7500  59.2500  54.7500 Du        
   1193 ****        43.7500  59.5000  54.5000 Du        
   1194 ****        43.7500  59.5000  54.7500 Du        
   1195 ****        43.7500  64.5000  66.2500 Du        
   1196 ****        43.7500  64.7500  65.7500 Du        
   1197 ****        43.7500  64.7500  66.0000 Du        
   1198 ****        43.7500  64.7500  66.2500 Du        
   1199 ****        43.7500  64.7500  66.5000 Du        
   1200 ****        43.7500  64.7500  66.7500 Du        
   1201 ****        43.7500  65.0000  65.7500 Du        
   1202 ****        43.7500  65.0000  66.0000 Du        
   1203 ****        43.7500  65.0000  66.2500 Du        
   1204 ****        43.7500  65.0000  66.5000 Du        
   1205 ****        43.7500  65.0000  66.7500 Du        
   1206 ****        43.7500  65.2500  65.7500 Du        
   1207 ****        43.7500  65.2500  66.0000 Du        
   1208 ****        43.7500  65.2500  66.2500 Du        
   1209 ****        43.7500  65.2500  66.5000 Du        
   1210 ****        43.7500  65.2500  66.7500 Du        
   1211 ****        43.7500  65.5000  65.5000 Du        
   1212 ****        43.7500  65.5000  65.7500 Du        
   1213 ****        43.7500  65.5000  66.0000 Du        
   1214 ****        43.7500  65.5000  66.2500 Du        
   1215 ****        43.7500  65.5000  66.5000 Du        
   1216 ****        43.7500  65.5000  66.7500 Du        
   1217 ****        43.7500  65.7500  65.5000 Du        
   1218 ****        43.7500  65.7500  65.7500 Du        
   1219 ****        43.7500  66.5000  64.5000 Du        
   1220 ****        43.7500  66.5000  64.7500 Du        
   1221 ****        43.7500  66.7500  64.0000 Du        
   1222 ****        43.7500  66.7500  64.2500 Du        
   1223 ****        43.7500  66.7500  64.5000 Du        
   1224 ****        43.7500  66.7500  64.7500 Du        
   1225 ****        43.7500  67.0000  63.7500 Du        
   1226 ****        43.7500  67.0000  64.0000 Du        
   1227 ****        43.7500  67.0000  64.2500 Du        
   1228 ****        43.7500  67.0000  64.5000 Du        
   1229 ****        43.7500  67.2500  63.7500 Du        
   1230 ****        43.7500  67.2500  64.0000 Du        
   1231 ****        43.7500  67.2500  64.2500 Du        
   1232 ****        43.7500  67.2500  64.5000 Du        
   1233 ****        43.7500  75.7500  59.5000 Du        
   1234 ****        43.7500  75.7500  59.7500 Du        
   1235 ****        43.7500  76.0000  59.2500 Du        
   1236 ****        43.7500  76.0000  59.5000 Du        
   1237 ****        43.7500  76.0000  59.7500 Du        
   1238 ****        43.7500  76.0000  60.0000 Du        
   1239 ****        43.7500  76.0000  60.2500 Du        
   1240 ****        43.7500  76.0000  60.5000 Du        
   1241 ****        43.7500  76.2500  59.5000 Du        
   1242 ****        43.7500  76.2500  59.7500 Du        
   1243 ****        43.7500  76.2500  60.0000 Du        
   1244 ****        43.7500  76.2500  60.2500 Du        
   1245 ****        44.0000  58.2500  54.2500 Du        
   1246 ****        44.0000  58.2500  54.5000 Du        
   1247 ****        44.0000  58.5000  54.2500 Du        
   1248 ****        44.0000  58.5000  54.5000 Du        
   1249 ****        44.0000  58.5000  54.7500 Du        
   1250 ****        44.0000  58.7500  54.2500 Du        
   1251 ****        44.0000  58.7500  54.5000 Du        
   1252 ****        44.0000  58.7500  54.7500 Du        
   1253 ****        44.0000  59.0000  54.0000 Du        
   1254 ****        44.0000  59.0000  54.2500 Du        
   1255 ****        44.0000  59.0000  54.5000 Du        
   1256 ****        44.0000  59.0000  54.7500 Du        
   1257 ****        44.0000  59.2500  54.2500 Du        
   1258 ****        44.0000  59.2500  54.5000 Du        
   1259 ****        44.0000  59.2500  54.7500 Du        
   1260 ****        44.0000  59.5000  54.5000 Du        
   1261 ****        44.0000  59.5000  54.7500 Du        
   1262 ****        44.0000  64.7500  66.0000 Du        
   1263 ****        44.0000  64.7500  66.2500 Du        
   1264 ****        44.0000  64.7500  66.5000 Du        
   1265 ****        44.0000  64.7500  66.7500 Du        
   1266 ****        44.0000  65.0000  65.7500 Du        
   1267 ****        44.0000  65.0000  66.0000 Du        
   1268 ****        44.0000  65.0000  66.2500 Du        
   1269 ****        44.0000  65.0000  66.5000 Du        
   1270 ****        44.0000  65.0000  66.7500 Du        
   1271 ****        44.0000  65.2500  65.7500 Du        
   1272 ****        44.0000  65.2500  66.0000 Du        
   1273 ****        44.0000  65.2500  66.2500 Du        
   1274 ****        44.0000  65.2500  66.5000 Du        
   1275 ****        44.0000  65.2500  66.7500 Du        
   1276 ****        44.0000  65.5000  65.7500 Du        
   1277 ****        44.0000  65.5000  66.0000 Du        
   1278 ****        44.0000  65.5000  66.2500 Du        
   1279 ****        44.0000  65.5000  66.5000 Du        
   1280 ****        44.0000  65.5000  66.7500 Du        
   1281 ****        44.0000  67.0000  64.0000 Du        
   1282 ****        44.0000  67.0000  64.2500 Du        
   1283 ****        44.0000  67.0000  64.5000 Du        
   1284 ****        44.0000  74.5000  53.0000 Du        
   1285 ****        44.0000  74.5000  53.2500 Du        
   1286 ****        44.0000  74.7500  53.0000 Du        
   1287 ****        44.0000  74.7500  53.2500 Du        
   1288 ****        44.0000  74.7500  53.5000 Du        
   1289 ****        44.0000  74.7500  53.7500 Du        
   1290 ****        44.0000  74.7500  54.0000 Du        
   1291 ****        44.0000  75.0000  52.7500 Du        
   1292 ****        44.0000  75.0000  53.0000 Du        
   1293 ****        44.0000  75.0000  53.2500 Du        
   1294 ****        44.0000  75.0000  53.5000 Du        
   1295 ****        44.0000  75.0000  53.7500 Du        
   1296 ****        44.0000  75.0000  54.0000 Du        
   1297 ****        44.0000  75.2500  53.2500 Du        
   1298 ****        44.0000  75.2500  53.5000 Du        
   1299 ****        44.0000  75.2500  53.7500 Du        
   1300 ****        44.0000  75.2500  54.0000 Du        
   1301 ****        44.0000  75.2500  54.2500 Du        
   1302 ****        44.0000  75.5000  53.7500 Du        
   1303 ****        44.0000  75.5000  54.0000 Du        
   1304 ****        44.0000  76.0000  59.5000 Du        
   1305 ****        44.0000  76.0000  59.7500 Du        
   1306 ****        44.0000  76.0000  60.0000 Du        
   1307 ****        44.0000  76.0000  61.5000 Du        
   1308 ****        44.0000  76.2500  59.5000 Du        
   1309 ****        44.0000  76.2500  59.7500 Du        
   1310 ****        44.0000  76.2500  60.0000 Du        
   1311 ****        44.0000  76.2500  60.2500 Du        
   1312 ****        44.0000  76.2500  60.5000 Du        
   1313 ****        44.0000  76.2500  60.7500 Du        
   1314 ****        44.0000  76.2500  61.0000 Du        
   1315 ****        44.0000  76.5000  60.0000 Du        
   1316 ****        44.0000  76.5000  60.2500 Du        
   1317 ****        44.2500  58.2500  54.2500 Du        
   1318 ****        44.2500  58.2500  54.5000 Du        
   1319 ****        44.2500  58.5000  54.2500 Du        
   1320 ****        44.2500  58.5000  54.5000 Du        
   1321 ****        44.2500  58.7500  54.0000 Du        
   1322 ****        44.2500  58.7500  54.2500 Du        
   1323 ****        44.2500  58.7500  54.5000 Du        
   1324 ****        44.2500  58.7500  54.7500 Du        
   1325 ****        44.2500  59.0000  54.0000 Du        
   1326 ****        44.2500  59.0000  54.2500 Du        
   1327 ****        44.2500  59.0000  54.5000 Du        
   1328 ****        44.2500  59.0000  54.7500 Du        
   1329 ****        44.2500  59.2500  54.0000 Du        
   1330 ****        44.2500  59.2500  54.2500 Du        
   1331 ****        44.2500  59.2500  54.5000 Du        
   1332 ****        44.2500  59.2500  54.7500 Du        
   1333 ****        44.2500  59.5000  54.5000 Du        
   1334 ****        44.2500  59.5000  54.7500 Du        
   1335 ****        44.2500  64.7500  66.0000 Du        
   1336 ****        44.2500  64.7500  66.2500 Du        
   1337 ****        44.2500  64.7500  66.5000 Du        
   1338 ****        44.2500  64.7500  66.7500 Du        
   1339 ****        44.2500  65.0000  66.0000 Du        
   1340 ****        44.2500  65.0000  66.2500 Du        
   1341 ****        44.2500  65.0000  66.5000 Du        
   1342 ****        44.2500  65.0000  66.7500 Du        
   1343 ****        44.2500  65.2500  65.7500 Du        
   1344 ****        44.2500  65.2500  66.0000 Du        
   1345 ****        44.2500  65.2500  66.2500 Du        
   1346 ****        44.2500  65.2500  66.5000 Du        
   1347 ****        44.2500  65.2500  66.7500 Du        
   1348 ****        44.2500  65.5000  66.0000 Du        
   1349 ****        44.2500  65.5000  66.2500 Du        
   1350 ****        44.2500  65.5000  66.5000 Du        
   1351 ****        44.2500  65.5000  66.7500 Du        
   1352 ****        44.2500  74.5000  52.5000 Du        
   1353 ****        44.2500  74.5000  52.7500 Du        
   1354 ****        44.2500  74.5000  53.0000 Du        
   1355 ****        44.2500  74.5000  53.2500 Du        
   1356 ****        44.2500  74.5000  53.5000 Du        
   1357 ****        44.2500  74.7500  52.5000 Du        
   1358 ****        44.2500  74.7500  52.7500 Du        
   1359 ****        44.2500  74.7500  53.0000 Du        
   1360 ****        44.2500  74.7500  53.2500 Du        
   1361 ****        44.2500  74.7500  53.5000 Du        
   1362 ****        44.2500  74.7500  53.7500 Du        
   1363 ****        44.2500  74.7500  54.0000 Du        
   1364 ****        44.2500  75.0000  52.5000 Du        
   1365 ****        44.2500  75.0000  52.7500 Du        
   1366 ****        44.2500  75.0000  53.0000 Du        
   1367 ****        44.2500  75.0000  53.2500 Du        
   1368 ****        44.2500  75.0000  53.5000 Du        
   1369 ****        44.2500  75.0000  53.7500 Du        
   1370 ****        44.2500  75.0000  54.0000 Du        
   1371 ****        44.2500  75.0000  54.2500 Du        
   1372 ****        44.2500  75.2500  52.7500 Du        
   1373 ****        44.2500  75.2500  53.0000 Du        
   1374 ****        44.2500  75.2500  53.2500 Du        
   1375 ****        44.2500  75.2500  53.5000 Du        
   1376 ****        44.2500  75.2500  53.7500 Du        
   1377 ****        44.2500  75.2500  54.0000 Du        
   1378 ****        44.2500  75.2500  54.2500 Du        
   1379 ****        44.2500  75.5000  53.0000 Du        
   1380 ****        44.2500  75.5000  53.2500 Du        
   1381 ****        44.2500  75.5000  53.5000 Du        
   1382 ****        44.2500  75.5000  53.7500 Du        
   1383 ****        44.2500  75.5000  54.0000 Du        
   1384 ****        44.2500  75.7500  53.2500 Du        
   1385 ****        44.2500  75.7500  53.5000 Du        
   1386 ****        44.2500  75.7500  53.7500 Du        
   1387 ****        44.2500  75.7500  54.0000 Du        
   1388 ****        44.2500  76.0000  53.5000 Du        
   1389 ****        44.2500  76.0000  53.7500 Du        
   1390 ****        44.2500  76.0000  54.0000 Du        
   1391 ****        44.2500  76.0000  62.0000 Du        
   1392 ****        44.2500  76.2500  60.7500 Du        
   1393 ****        44.2500  76.2500  61.0000 Du        
   1394 ****        44.2500  76.2500  61.2500 Du        
   1395 ****        44.2500  76.2500  61.5000 Du        
   1396 ****        44.2500  76.5000  60.7500 Du        
   1397 ****        44.5000  58.2500  54.0000 Du        
   1398 ****        44.5000  58.2500  54.2500 Du        
   1399 ****        44.5000  58.2500  54.5000 Du        
   1400 ****        44.5000  58.5000  54.0000 Du        
   1401 ****        44.5000  58.5000  54.2500 Du        
   1402 ****        44.5000  58.5000  54.5000 Du        
   1403 ****        44.5000  58.7500  54.0000 Du        
   1404 ****        44.5000  58.7500  54.2500 Du        
   1405 ****        44.5000  58.7500  54.5000 Du        
   1406 ****        44.5000  58.7500  54.7500 Du        
   1407 ****        44.5000  59.0000  54.0000 Du        
   1408 ****        44.5000  59.0000  54.2500 Du        
   1409 ****        44.5000  59.0000  54.5000 Du        
   1410 ****        44.5000  59.0000  54.7500 Du        
   1411 ****        44.5000  59.2500  54.0000 Du        
   1412 ****        44.5000  59.2500  54.2500 Du        
   1413 ****        44.5000  59.2500  54.5000 Du        
   1414 ****        44.5000  59.2500  54.7500 Du        
   1415 ****        44.5000  64.7500  66.2500 Du        
   1416 ****        44.5000  64.7500  66.5000 Du        
   1417 ****        44.5000  64.7500  66.7500 Du        
   1418 ****        44.5000  65.0000  66.0000 Du        
   1419 ****        44.5000  65.0000  66.2500 Du        
   1420 ****        44.5000  65.0000  66.5000 Du        
   1421 ****        44.5000  65.0000  66.7500 Du        
   1422 ****        44.5000  65.2500  66.0000 Du        
   1423 ****        44.5000  65.2500  66.2500 Du        
   1424 ****        44.5000  65.2500  66.5000 Du        
   1425 ****        44.5000  65.2500  66.7500 Du        
   1426 ****        44.5000  65.5000  66.0000 Du        
   1427 ****        44.5000  65.5000  66.2500 Du        
   1428 ****        44.5000  65.5000  66.5000 Du        
   1429 ****        44.5000  65.5000  66.7500 Du        
   1430 ****        44.5000  74.2500  52.2500 Du        
   1431 ****        44.5000  74.2500  52.5000 Du        
   1432 ****        44.5000  74.5000  52.0000 Du        
   1433 ****        44.5000  74.5000  52.2500 Du        
   1434 ****        44.5000  74.5000  52.5000 Du        
   1435 ****        44.5000  74.5000  52.7500 Du        
   1436 ****        44.5000  74.5000  53.0000 Du        
   1437 ****        44.5000  74.5000  53.2500 Du        
   1438 ****        44.5000  74.5000  53.5000 Du        
   1439 ****        44.5000  74.5000  53.7500 Du        
   1440 ****        44.5000  74.7500  52.0000 Du        
   1441 ****        44.5000  74.7500  52.2500 Du        
   1442 ****        44.5000  74.7500  52.5000 Du        
   1443 ****        44.5000  74.7500  52.7500 Du        
   1444 ****        44.5000  74.7500  53.0000 Du        
   1445 ****        44.5000  74.7500  53.2500 Du        
   1446 ****        44.5000  74.7500  53.5000 Du        
   1447 ****        44.5000  74.7500  53.7500 Du        
   1448 ****        44.5000  74.7500  54.0000 Du        
   1449 ****        44.5000  75.0000  52.0000 Du        
   1450 ****        44.5000  75.0000  52.2500 Du        
   1451 ****        44.5000  75.0000  52.5000 Du        
   1452 ****        44.5000  75.0000  52.7500 Du        
   1453 ****        44.5000  75.0000  53.0000 Du        
   1454 ****        44.5000  75.0000  53.2500 Du        
   1455 ****        44.5000  75.0000  53.5000 Du        
   1456 ****        44.5000  75.0000  53.7500 Du        
   1457 ****        44.5000  75.0000  54.0000 Du        
   1458 ****        44.5000  75.2500  52.2500 Du        
   1459 ****        44.5000  75.2500  52.5000 Du        
   1460 ****        44.5000  75.2500  52.7500 Du        
   1461 ****        44.5000  75.2500  53.0000 Du        
   1462 ****        44.5000  75.2500  53.2500 Du        
   1463 ****        44.5000  75.2500  53.5000 Du        
   1464 ****        44.5000  75.2500  53.7500 Du        
   1465 ****        44.5000  75.2500  54.0000 Du        
   1466 ****        44.5000  75.2500  54.2500 Du        
   1467 ****        44.5000  75.5000  52.7500 Du        
   1468 ****        44.5000  75.5000  53.0000 Du        
   1469 ****        44.5000  75.5000  53.2500 Du        
   1470 ****        44.5000  75.5000  53.5000 Du        
   1471 ****        44.5000  75.5000  53.7500 Du        
   1472 ****        44.5000  75.5000  54.0000 Du        
   1473 ****        44.5000  75.5000  54.2500 Du        
   1474 ****        44.5000  75.7500  53.0000 Du        
   1475 ****        44.5000  75.7500  53.2500 Du        
   1476 ****        44.5000  75.7500  53.5000 Du        
   1477 ****        44.5000  75.7500  53.7500 Du        
   1478 ****        44.5000  75.7500  54.0000 Du        
   1479 ****        44.5000  75.7500  54.2500 Du        
   1480 ****        44.5000  76.0000  53.0000 Du        
   1481 ****        44.5000  76.0000  53.2500 Du        
   1482 ****        44.5000  76.0000  53.5000 Du        
   1483 ****        44.5000  76.0000  53.7500 Du        
   1484 ****        44.5000  76.0000  54.0000 Du        
   1485 ****        44.5000  76.0000  54.2500 Du        
   1486 ****        44.5000  76.2500  53.0000 Du        
   1487 ****        44.5000  76.2500  53.2500 Du        
   1488 ****        44.5000  76.2500  53.5000 Du        
   1489 ****        44.5000  76.2500  53.7500 Du        
   1490 ****        44.5000  76.2500  54.0000 Du        
   1491 ****        44.5000  76.2500  54.2500 Du        
   1492 ****        44.5000  76.2500  61.2500 Du        
   1493 ****        44.5000  76.2500  61.5000 Du        
   1494 ****        44.5000  76.2500  61.7500 Du        
   1495 ****        44.5000  76.2500  62.0000 Du        
   1496 ****        44.5000  76.5000  53.2500 Du        
   1497 ****        44.5000  76.5000  53.5000 Du        
   1498 ****        44.5000  76.5000  53.7500 Du        
   1499 ****        44.5000  76.5000  54.0000 Du        
   1500 ****        44.5000  76.5000  54.2500 Du        
   1501 ****        44.5000  76.5000  61.0000 Du        
   1502 ****        44.5000  76.5000  61.2500 Du        
   1503 ****        44.5000  76.7500  53.5000 Du        
   1504 ****        44.5000  76.7500  53.7500 Du        
   1505 ****        44.5000  76.7500  54.0000 Du        
   1506 ****        44.5000  76.7500  54.2500 Du        
   1507 ****        44.5000  77.0000  53.7500 Du        
   1508 ****        44.5000  77.0000  54.0000 Du        
   1509 ****        44.5000  77.0000  54.2500 Du        
   1510 ****        44.5000  77.2500  54.0000 Du        
   1511 ****        44.5000  77.2500  54.2500 Du        
   1512 ****        44.7500  58.2500  54.0000 Du        
   1513 ****        44.7500  58.2500  54.2500 Du        
   1514 ****        44.7500  58.5000  54.0000 Du        
   1515 ****        44.7500  58.5000  54.2500 Du        
   1516 ****        44.7500  58.5000  54.5000 Du        
   1517 ****        44.7500  58.7500  54.0000 Du        
   1518 ****        44.7500  58.7500  54.2500 Du        
   1519 ****        44.7500  58.7500  54.5000 Du        
   1520 ****        44.7500  59.0000  54.0000 Du        
   1521 ****        44.7500  59.0000  54.2500 Du        
   1522 ****        44.7500  59.0000  54.5000 Du        
   1523 ****        44.7500  59.2500  53.7500 Du        
   1524 ****        44.7500  59.2500  54.0000 Du        
   1525 ****        44.7500  59.2500  54.2500 Du        
   1526 ****        44.7500  59.2500  54.5000 Du        
   1527 ****        44.7500  65.0000  66.2500 Du        
   1528 ****        44.7500  65.0000  66.5000 Du        
   1529 ****        44.7500  65.0000  66.7500 Du        
   1530 ****        44.7500  65.2500  66.0000 Du        
   1531 ****        44.7500  65.2500  66.2500 Du        
   1532 ****        44.7500  65.2500  66.5000 Du        
   1533 ****        44.7500  65.2500  66.7500 Du        
   1534 ****        44.7500  65.5000  66.0000 Du        
   1535 ****        44.7500  65.5000  66.2500 Du        
   1536 ****        44.7500  65.5000  66.5000 Du        
   1537 ****        44.7500  65.5000  66.7500 Du        
   1538 ****        44.7500  74.2500  52.0000 Du        
   1539 ****        44.7500  74.2500  52.2500 Du        
   1540 ****        44.7500  74.5000  51.7500 Du        
   1541 ****        44.7500  74.5000  52.0000 Du        
   1542 ****        44.7500  74.5000  52.2500 Du        
   1543 ****        44.7500  74.5000  52.5000 Du        
   1544 ****        44.7500  74.5000  52.7500 Du        
   1545 ****        44.7500  74.5000  53.0000 Du        
   1546 ****        44.7500  74.5000  53.2500 Du        
   1547 ****        44.7500  74.5000  53.5000 Du        
   1548 ****        44.7500  74.7500  51.7500 Du        
   1549 ****        44.7500  74.7500  52.0000 Du        
   1550 ****        44.7500  74.7500  52.2500 Du        
   1551 ****        44.7500  74.7500  52.5000 Du        
   1552 ****        44.7500  74.7500  52.7500 Du        
   1553 ****        44.7500  74.7500  53.0000 Du        
   1554 ****        44.7500  74.7500  53.2500 Du        
   1555 ****        44.7500  74.7500  53.5000 Du        
   1556 ****        44.7500  74.7500  53.7500 Du        
   1557 ****        44.7500  74.7500  54.0000 Du        
   1558 ****        44.7500  75.0000  52.0000 Du        
   1559 ****        44.7500  75.0000  52.2500 Du        
   1560 ****        44.7500  75.0000  52.5000 Du        
   1561 ****        44.7500  75.0000  52.7500 Du        
   1562 ****        44.7500  75.0000  53.0000 Du        
   1563 ****        44.7500  75.0000  53.2500 Du        
   1564 ****        44.7500  75.0000  53.5000 Du        
   1565 ****        44.7500  75.0000  53.7500 Du        
   1566 ****        44.7500  75.0000  54.0000 Du        
   1567 ****        44.7500  75.2500  52.2500 Du        
   1568 ****        44.7500  75.2500  52.5000 Du        
   1569 ****        44.7500  75.2500  52.7500 Du        
   1570 ****        44.7500  75.2500  53.0000 Du        
   1571 ****        44.7500  75.2500  53.2500 Du        
   1572 ****        44.7500  75.2500  53.5000 Du        
   1573 ****        44.7500  75.2500  53.7500 Du        
   1574 ****        44.7500  75.2500  54.0000 Du        
   1575 ****        44.7500  75.5000  52.5000 Du        
   1576 ****        44.7500  75.5000  52.7500 Du        
   1577 ****        44.7500  75.5000  53.0000 Du        
   1578 ****        44.7500  75.5000  53.2500 Du        
   1579 ****        44.7500  75.5000  53.5000 Du        
   1580 ****        44.7500  75.5000  53.7500 Du        
   1581 ****        44.7500  75.5000  54.0000 Du        
   1582 ****        44.7500  75.7500  52.7500 Du        
   1583 ****        44.7500  75.7500  53.0000 Du        
   1584 ****        44.7500  75.7500  53.2500 Du        
   1585 ****        44.7500  75.7500  53.5000 Du        
   1586 ****        44.7500  75.7500  53.7500 Du        
   1587 ****        44.7500  75.7500  54.0000 Du        
   1588 ****        44.7500  75.7500  54.2500 Du        
   1589 ****        44.7500  76.0000  53.0000 Du        
   1590 ****        44.7500  76.0000  53.2500 Du        
   1591 ****        44.7500  76.0000  53.5000 Du        
   1592 ****        44.7500  76.0000  53.7500 Du        
   1593 ****        44.7500  76.0000  54.0000 Du        
   1594 ****        44.7500  76.0000  54.2500 Du        
   1595 ****        44.7500  76.2500  53.0000 Du        
   1596 ****        44.7500  76.2500  53.2500 Du        
   1597 ****        44.7500  76.2500  53.5000 Du        
   1598 ****        44.7500  76.2500  53.7500 Du        
   1599 ****        44.7500  76.2500  54.0000 Du        
   1600 ****        44.7500  76.2500  54.2500 Du        
   1601 ****        44.7500  76.5000  53.2500 Du        
   1602 ****        44.7500  76.5000  53.5000 Du        
   1603 ****        44.7500  76.5000  53.7500 Du        
   1604 ****        44.7500  76.5000  54.0000 Du        
   1605 ****        44.7500  76.5000  54.2500 Du        
   1606 ****        44.7500  76.7500  53.5000 Du        
   1607 ****        44.7500  76.7500  53.7500 Du        
   1608 ****        44.7500  76.7500  54.0000 Du        
   1609 ****        44.7500  76.7500  54.2500 Du        
   1610 ****        44.7500  77.0000  53.7500 Du        
   1611 ****        44.7500  77.0000  54.0000 Du        
   1612 ****        44.7500  77.0000  54.2500 Du        
   1613 ****        44.7500  77.2500  54.0000 Du        
   1614 ****        44.7500  77.2500  54.2500 Du        
   1615 ****        45.0000  58.0000  54.0000 Du        
   1616 ****        45.0000  58.2500  54.0000 Du        
   1617 ****        45.0000  58.5000  54.0000 Du        
   1618 ****        45.0000  58.5000  54.2500 Du        
   1619 ****        45.0000  58.7500  54.0000 Du        
   1620 ****        45.0000  58.7500  54.2500 Du        
   1621 ****        45.0000  59.0000  53.7500 Du        
   1622 ****        45.0000  59.0000  54.0000 Du        
   1623 ****        45.0000  59.0000  54.2500 Du        
   1624 ****        45.0000  59.2500  53.7500 Du        
   1625 ****        45.0000  59.2500  54.0000 Du        
   1626 ****        45.0000  59.2500  54.2500 Du        
   1627 ****        45.0000  65.0000  66.2500 Du        
   1628 ****        45.0000  65.0000  66.5000 Du        
   1629 ****        45.0000  65.0000  66.7500 Du        
   1630 ****        45.0000  65.2500  66.2500 Du        
   1631 ****        45.0000  65.2500  66.5000 Du        
   1632 ****        45.0000  65.2500  66.7500 Du        
   1633 ****        45.0000  65.5000  66.2500 Du        
   1634 ****        45.0000  65.5000  66.5000 Du        
   1635 ****        45.0000  74.5000  52.2500 Du        
   1636 ****        45.0000  74.5000  52.5000 Du        
   1637 ****        45.0000  74.5000  52.7500 Du        
   1638 ****        45.0000  74.5000  53.0000 Du        
   1639 ****        45.0000  74.5000  53.2500 Du        
   1640 ****        45.0000  74.5000  53.5000 Du        
   1641 ****        45.0000  74.7500  52.2500 Du        
   1642 ****        45.0000  74.7500  52.5000 Du        
   1643 ****        45.0000  74.7500  52.7500 Du        
   1644 ****        45.0000  74.7500  53.0000 Du        
   1645 ****        45.0000  74.7500  53.2500 Du        
   1646 ****        45.0000  74.7500  53.5000 Du        
   1647 ****        45.0000  74.7500  53.7500 Du        
   1648 ****        45.0000  74.7500  54.0000 Du        
   1649 ****        45.0000  75.0000  52.5000 Du        
   1650 ****        45.0000  75.0000  52.7500 Du        
   1651 ****        45.0000  75.0000  53.0000 Du        
   1652 ****        45.0000  75.0000  53.2500 Du        
   1653 ****        45.0000  75.0000  53.5000 Du        
   1654 ****        45.0000  75.0000  53.7500 Du        
   1655 ****        45.0000  75.0000  54.0000 Du        
   1656 ****        45.0000  75.2500  52.7500 Du        
   1657 ****        45.0000  75.2500  53.0000 Du        
   1658 ****        45.0000  75.2500  53.2500 Du        
   1659 ****        45.0000  75.2500  53.5000 Du        
   1660 ****        45.0000  75.2500  53.7500 Du        
   1661 ****        45.0000  75.2500  54.0000 Du        
   1662 ****        45.0000  75.5000  53.0000 Du        
   1663 ****        45.0000  75.5000  53.2500 Du        
   1664 ****        45.0000  75.5000  53.5000 Du        
   1665 ****        45.0000  75.5000  53.7500 Du        
   1666 ****        45.0000  75.5000  54.0000 Du        
   1667 ****        45.0000  75.7500  53.0000 Du        
   1668 ****        45.0000  75.7500  53.2500 Du        
   1669 ****        45.0000  75.7500  53.5000 Du        
   1670 ****        45.0000  75.7500  53.7500 Du        
   1671 ****        45.0000  75.7500  54.0000 Du        
   1672 ****        45.0000  76.0000  53.2500 Du        
   1673 ****        45.0000  76.0000  53.5000 Du        
   1674 ****        45.0000  76.0000  53.7500 Du        
   1675 ****        45.0000  76.0000  54.0000 Du        
   1676 ****        45.0000  76.2500  53.2500 Du        
   1677 ****        45.0000  76.2500  53.5000 Du        
   1678 ****        45.0000  76.2500  53.7500 Du        
   1679 ****        45.0000  76.2500  54.0000 Du        
   1680 ****        45.0000  76.5000  53.5000 Du        
   1681 ****        45.0000  76.5000  53.7500 Du        
   1682 ****        45.0000  76.5000  54.0000 Du        
   1683 ****        45.0000  76.7500  53.7500 Du        
   1684 ****        45.0000  76.7500  54.0000 Du        
   1685 ****        45.0000  76.7500  54.2500 Du        
   1686 ****        45.0000  77.0000  54.0000 Du        
   1687 ****        45.0000  77.0000  54.2500 Du        
   1688 ****        45.2500  58.2500  53.7500 Du        
   1689 ****        45.2500  58.2500  54.0000 Du        
   1690 ****        45.2500  58.5000  54.0000 Du        
   1691 ****        45.2500  58.7500  54.0000 Du        
   1692 ****        45.2500  59.0000  53.7500 Du        
   1693 ****        45.2500  59.0000  54.0000 Du        
   1694 ****        45.2500  59.2500  53.7500 Du        
   1695 ****        45.2500  59.2500  54.0000 Du        
   1696 ****        45.2500  74.7500  53.2500 Du        
   1697 ****        45.2500  74.7500  53.5000 Du        
   1698 ****        45.2500  74.7500  53.7500 Du        
   1699 ****        45.2500  75.0000  53.0000 Du        
   1700 ****        45.2500  75.0000  53.2500 Du        
   1701 ****        45.2500  75.0000  53.5000 Du        
   1702 ****        45.2500  75.0000  53.7500 Du        
   1703 ****        45.2500  75.0000  54.0000 Du        
   1704 ****        45.2500  75.2500  53.2500 Du        
   1705 ****        45.2500  75.2500  53.5000 Du        
   1706 ****        45.2500  75.2500  53.7500 Du        
   1707 ****        45.2500  75.2500  54.0000 Du        
   1708 ****        45.2500  75.5000  53.2500 Du        
   1709 ****        45.2500  75.5000  53.5000 Du        
   1710 ****        45.2500  75.5000  53.7500 Du        
   1711 ****        45.2500  75.5000  54.0000 Du        
   1712 ****        45.2500  75.7500  53.5000 Du        
   1713 ****        45.2500  75.7500  53.7500 Du        
   1714 ****        45.2500  75.7500  54.0000 Du        
   1715 ****        45.2500  76.0000  53.5000 Du        
   1716 ****        45.2500  76.0000  53.7500 Du        
   1717 ****        45.2500  76.0000  54.0000 Du        
   1718 ****        45.2500  76.2500  53.7500 Du        
   1719 ****        45.2500  76.2500  54.0000 Du        
   1720 ****        45.5000  51.0000  57.5000 Du        
   1721 ****        45.5000  51.0000  57.7500 Du        
   1722 ****        45.5000  51.0000  58.0000 Du        
   1723 ****        45.5000  51.0000  58.2500 Du        
   1724 ****        45.5000  57.7500  53.5000 Du        
   1725 ****        45.5000  58.0000  53.5000 Du        
   1726 ****        45.5000  58.0000  53.7500 Du        
   1727 ****        45.5000  58.2500  53.5000 Du        
   1728 ****        45.5000  58.2500  53.7500 Du        
   1729 ****        45.5000  58.5000  53.7500 Du        
   1730 ****        45.5000  58.5000  54.0000 Du        
   1731 ****        45.5000  58.7500  53.7500 Du        
   1732 ****        45.5000  58.7500  54.0000 Du        
   1733 ****        45.5000  59.0000  53.7500 Du        
   1734 ****        45.5000  59.0000  54.0000 Du        
   1735 ****        45.5000  59.2500  54.0000 Du        
   1736 ****        45.5000  75.0000  53.7500 Du        
   1737 ****        45.5000  75.2500  53.7500 Du        
   1738 ****        45.5000  75.2500  54.0000 Du        
   1739 ****        45.5000  75.5000  53.7500 Du        
   1740 ****        45.5000  75.5000  54.0000 Du        
   1741 ****        45.5000  75.7500  53.7500 Du        
   1742 ****        45.7500  50.7500  57.5000 Du        
   1743 ****        45.7500  50.7500  58.0000 Du        
   1744 ****        45.7500  51.0000  57.0000 Du        
   1745 ****        45.7500  51.0000  57.2500 Du        
   1746 ****        45.7500  51.0000  57.5000 Du        
   1747 ****        45.7500  51.0000  57.7500 Du        
   1748 ****        45.7500  51.0000  58.0000 Du        
   1749 ****        45.7500  51.2500  57.2500 Du        
   1750 ****        45.7500  51.2500  57.5000 Du        
   1751 ****        45.7500  51.2500  57.7500 Du        
   1752 ****        45.7500  51.2500  58.0000 Du        
   1753 ****        45.7500  57.5000  53.5000 Du        
   1754 ****        45.7500  57.7500  53.5000 Du        
   1755 ****        45.7500  57.7500  53.7500 Du        
   1756 ****        45.7500  58.0000  53.5000 Du        
   1757 ****        45.7500  58.0000  53.7500 Du        
   1758 ****        45.7500  58.2500  53.5000 Du        
   1759 ****        45.7500  58.2500  53.7500 Du        
   1760 ****        45.7500  58.5000  53.7500 Du        
   1761 ****        45.7500  58.7500  53.5000 Du        
   1762 ****        45.7500  58.7500  53.7500 Du        
   1763 ****        45.7500  58.7500  54.0000 Du        
   1764 ****        45.7500  59.0000  53.5000 Du        
   1765 ****        45.7500  59.0000  53.7500 Du        
   1766 ****        45.7500  59.0000  54.0000 Du        
   1767 ****        45.7500  59.2500  53.5000 Du        
   1768 ****        45.7500  59.2500  53.7500 Du        
   1769 ****        45.7500  59.2500  54.0000 Du        
   1770 ****        45.7500  59.5000  53.5000 Du        
   1771 ****        45.7500  59.5000  53.7500 Du        
   1772 ****        46.0000  50.7500  57.2500 Du        
   1773 ****        46.0000  50.7500  57.5000 Du        
   1774 ****        46.0000  51.0000  57.2500 Du        
   1775 ****        46.0000  51.0000  57.5000 Du        
   1776 ****        46.0000  51.0000  57.7500 Du        
   1777 ****        46.0000  51.2500  57.7500 Du        
   1778 ****        46.0000  58.0000  53.5000 Du        
   1779 ****        46.0000  58.2500  53.5000 Du        
   1780 ****        46.0000  58.2500  53.7500 Du        
   1781 ****        46.0000  58.5000  53.5000 Du        
   1782 ****        46.0000  58.5000  53.7500 Du        
   1783 ****        46.0000  58.7500  53.5000 Du        
   1784 ****        46.0000  58.7500  53.7500 Du        
   1785 ****        46.0000  59.0000  53.5000 Du        
   1786 ****        46.0000  59.0000  53.7500 Du        
   1787 ****        46.0000  59.2500  53.5000 Du        
   1788 ****        46.0000  59.2500  53.7500 Du        
   1789 ****        46.0000  59.5000  53.5000 Du        
   1790 ****        46.0000  59.5000  53.7500 Du        
   1791 ****        46.2500  55.5000  66.2500 Du        
   1792 ****        46.2500  58.5000  53.5000 Du        
   1793 ****        46.2500  58.7500  53.5000 Du        
   1794 ****        46.2500  58.7500  53.7500 Du        
   1795 ****        46.2500  59.0000  53.5000 Du        
   1796 ****        46.2500  59.0000  53.7500 Du        
   1797 ****        46.2500  59.2500  53.5000 Du        
   1798 ****        46.2500  59.2500  53.7500 Du        
   1799 ****        46.2500  59.5000  53.5000 Du        
   1800 ****        46.2500  59.5000  53.7500 Du        
   1801 ****        46.2500  59.7500  53.5000 Du        
   1802 ****        46.5000  55.5000  66.2500 Du        
   1803 ****        46.5000  55.7500  66.2500 Du        
   1804 ****        46.5000  55.7500  66.7500 Du        
   1805 ****        46.5000  58.0000  53.5000 Du        
   1806 ****        46.5000  58.2500  53.5000 Du        
   1807 ****        46.5000  58.5000  53.2500 Du        
   1808 ****        46.5000  58.5000  53.5000 Du        
   1809 ****        46.5000  58.7500  53.2500 Du        
   1810 ****        46.5000  58.7500  53.5000 Du        
   1811 ****        46.5000  58.7500  53.7500 Du        
   1812 ****        46.5000  59.0000  53.2500 Du        
   1813 ****        46.5000  59.0000  53.5000 Du        
   1814 ****        46.5000  59.0000  53.7500 Du        
   1815 ****        46.5000  59.2500  53.2500 Du        
   1816 ****        46.5000  59.2500  53.5000 Du        
   1817 ****        46.5000  59.2500  53.7500 Du        
   1818 ****        46.5000  59.5000  53.5000 Du        
   1819 ****        46.5000  59.5000  53.7500 Du        
   1820 ****        46.5000  59.7500  53.5000 Du        
   1821 ****        46.5000  59.7500  53.7500 Du        
   1822 ****        46.7500  58.2500  53.2500 Du        
   1823 ****        46.7500  58.2500  53.5000 Du        
   1824 ****        46.7500  58.5000  53.0000 Du        
   1825 ****        46.7500  58.5000  53.2500 Du        
   1826 ****        46.7500  58.5000  53.5000 Du        
   1827 ****        46.7500  58.7500  53.0000 Du        
   1828 ****        46.7500  58.7500  53.2500 Du        
   1829 ****        46.7500  58.7500  53.5000 Du        
   1830 ****        46.7500  59.0000  53.0000 Du        
   1831 ****        46.7500  59.0000  53.2500 Du        
   1832 ****        46.7500  59.0000  53.5000 Du        
   1833 ****        46.7500  59.2500  53.0000 Du        
   1834 ****        46.7500  59.2500  53.2500 Du        
   1835 ****        46.7500  59.2500  53.5000 Du        
   1836 ****        46.7500  59.2500  53.7500 Du        
   1837 ****        46.7500  59.5000  53.2500 Du        
   1838 ****        46.7500  59.5000  53.5000 Du        
   1839 ****        46.7500  59.5000  53.7500 Du        
   1840 ****        46.7500  59.7500  53.2500 Du        
   1841 ****        46.7500  59.7500  53.5000 Du        
   1842 ****        46.7500  59.7500  53.7500 Du        
   1843 ****        46.7500  60.0000  53.2500 Du        
   1844 ****        46.7500  60.0000  53.5000 Du        
   1845 ****        47.0000  58.2500  53.0000 Du        
   1846 ****        47.0000  58.2500  53.2500 Du        
   1847 ****        47.0000  58.5000  52.7500 Du        
   1848 ****        47.0000  58.5000  53.0000 Du        
   1849 ****        47.0000  58.5000  53.2500 Du        
   1850 ****        47.0000  58.7500  52.7500 Du        
   1851 ****        47.0000  58.7500  53.0000 Du        
   1852 ****        47.0000  58.7500  53.2500 Du        
   1853 ****        47.0000  59.0000  52.7500 Du        
   1854 ****        47.0000  59.0000  53.0000 Du        
   1855 ****        47.0000  59.0000  53.2500 Du        
   1856 ****        47.0000  59.0000  53.5000 Du        
   1857 ****        47.0000  59.2500  52.7500 Du        
   1858 ****        47.0000  59.2500  53.0000 Du        
   1859 ****        47.0000  59.2500  53.2500 Du        
   1860 ****        47.0000  59.2500  53.5000 Du        
   1861 ****        47.0000  59.5000  53.0000 Du        
   1862 ****        47.0000  59.5000  53.2500 Du        
   1863 ****        47.0000  59.5000  53.5000 Du        
   1864 ****        47.0000  59.5000  53.7500 Du        
   1865 ****        47.0000  59.7500  53.0000 Du        
   1866 ****        47.0000  59.7500  53.2500 Du        
   1867 ****        47.0000  59.7500  53.5000 Du        
   1868 ****        47.0000  59.7500  53.7500 Du        
   1869 ****        47.0000  60.0000  53.0000 Du        
   1870 ****        47.0000  60.0000  53.2500 Du        
   1871 ****        47.0000  60.0000  53.5000 Du        
   1872 ****        47.0000  60.0000  53.7500 Du        
   1873 ****        47.0000  60.2500  53.0000 Du        
   1874 ****        47.0000  60.2500  53.2500 Du        
   1875 ****        47.0000  60.2500  53.5000 Du        
   1876 ****        47.2500  58.2500  52.7500 Du        
   1877 ****        47.2500  58.2500  53.0000 Du        
   1878 ****        47.2500  58.5000  52.7500 Du        
   1879 ****        47.2500  58.5000  53.0000 Du        
   1880 ****        47.2500  58.7500  52.7500 Du        
   1881 ****        47.2500  58.7500  53.0000 Du        
   1882 ****        47.2500  58.7500  53.2500 Du        
   1883 ****        47.2500  59.0000  52.7500 Du        
   1884 ****        47.2500  59.0000  53.0000 Du        
   1885 ****        47.2500  59.0000  53.2500 Du        
   1886 ****        47.2500  59.2500  52.7500 Du        
   1887 ****        47.2500  59.2500  53.0000 Du        
   1888 ****        47.2500  59.2500  53.2500 Du        
   1889 ****        47.2500  59.2500  53.5000 Du        
   1890 ****        47.2500  59.5000  52.7500 Du        
   1891 ****        47.2500  59.5000  53.0000 Du        
   1892 ****        47.2500  59.5000  53.2500 Du        
   1893 ****        47.2500  59.5000  53.5000 Du        
   1894 ****        47.2500  59.7500  52.7500 Du        
   1895 ****        47.2500  59.7500  53.0000 Du        
   1896 ****        47.2500  59.7500  53.2500 Du        
   1897 ****        47.2500  59.7500  53.5000 Du        
   1898 ****        47.2500  60.0000  52.7500 Du        
   1899 ****        47.2500  60.0000  53.0000 Du        
   1900 ****        47.2500  60.0000  53.2500 Du        
   1901 ****        47.2500  60.0000  53.5000 Du        
   1902 ****        47.2500  60.2500  52.7500 Du        
   1903 ****        47.2500  60.2500  53.0000 Du        
   1904 ****        47.2500  60.2500  53.2500 Du        
   1905 ****        47.2500  60.2500  53.5000 Du        
   1906 ****        47.2500  60.5000  53.0000 Du        
   1907 ****        47.5000  58.0000  52.5000 Du        
   1908 ****        47.5000  58.0000  52.7500 Du        
   1909 ****        47.5000  58.2500  52.5000 Du        
   1910 ****        47.5000  58.2500  52.7500 Du        
   1911 ****        47.5000  58.2500  53.0000 Du        
   1912 ****        47.5000  58.5000  52.5000 Du        
   1913 ****        47.5000  58.5000  52.7500 Du        
   1914 ****        47.5000  58.5000  53.0000 Du        
   1915 ****        47.5000  58.7500  52.5000 Du        
   1916 ****        47.5000  58.7500  52.7500 Du        
   1917 ****        47.5000  58.7500  53.0000 Du        
   1918 ****        47.5000  58.7500  53.2500 Du        
   1919 ****        47.5000  59.0000  52.5000 Du        
   1920 ****        47.5000  59.0000  52.7500 Du        
   1921 ****        47.5000  59.0000  53.0000 Du        
   1922 ****        47.5000  59.0000  53.2500 Du        
   1923 ****        47.5000  59.2500  52.5000 Du        
   1924 ****        47.5000  59.2500  52.7500 Du        
   1925 ****        47.5000  59.2500  53.0000 Du        
   1926 ****        47.5000  59.2500  53.2500 Du        
   1927 ****        47.5000  59.5000  52.5000 Du        
   1928 ****        47.5000  59.5000  52.7500 Du        
   1929 ****        47.5000  59.5000  53.0000 Du        
   1930 ****        47.5000  59.5000  53.2500 Du        
   1931 ****        47.5000  59.5000  53.5000 Du        
   1932 ****        47.5000  59.7500  52.5000 Du        
   1933 ****        47.5000  59.7500  52.7500 Du        
   1934 ****        47.5000  59.7500  53.0000 Du        
   1935 ****        47.5000  59.7500  53.2500 Du        
   1936 ****        47.5000  59.7500  53.5000 Du        
   1937 ****        47.5000  60.0000  52.5000 Du        
   1938 ****        47.5000  60.0000  52.7500 Du        
   1939 ****        47.5000  60.0000  53.0000 Du        
   1940 ****        47.5000  60.0000  53.2500 Du        
   1941 ****        47.5000  60.0000  53.5000 Du        
   1942 ****        47.5000  60.2500  52.5000 Du        
   1943 ****        47.5000  60.2500  52.7500 Du        
   1944 ****        47.5000  60.2500  53.0000 Du        
   1945 ****        47.5000  60.2500  53.2500 Du        
   1946 ****        47.5000  60.2500  53.5000 Du        
   1947 ****        47.5000  60.5000  52.5000 Du        
   1948 ****        47.5000  60.5000  52.7500 Du        
   1949 ****        47.5000  60.5000  53.0000 Du        
   1950 ****        47.5000  60.5000  53.2500 Du        
   1951 ****        47.5000  60.5000  53.5000 Du        
   1952 ****        47.5000  60.7500  52.7500 Du        
   1953 ****        47.5000  60.7500  53.0000 Du        
   1954 ****        47.5000  60.7500  53.2500 Du        
   1955 ****        47.5000  61.0000  52.7500 Du        
   1956 ****        47.5000  61.0000  53.0000 Du        
   1957 ****        47.5000  61.2500  52.7500 Du        
   1958 ****        47.7500  58.0000  52.5000 Du        
   1959 ****        47.7500  58.2500  52.5000 Du        
   1960 ****        47.7500  58.2500  52.7500 Du        
   1961 ****        47.7500  58.5000  52.5000 Du        
   1962 ****        47.7500  58.5000  52.7500 Du        
   1963 ****        47.7500  58.5000  53.0000 Du        
   1964 ****        47.7500  58.7500  52.5000 Du        
   1965 ****        47.7500  58.7500  52.7500 Du        
   1966 ****        47.7500  58.7500  53.0000 Du        
   1967 ****        47.7500  59.0000  52.5000 Du        
   1968 ****        47.7500  59.0000  52.7500 Du        
   1969 ****        47.7500  59.0000  53.0000 Du        
   1970 ****        47.7500  59.0000  53.2500 Du        
   1971 ****        47.7500  59.2500  52.5000 Du        
   1972 ****        47.7500  59.2500  52.7500 Du        
   1973 ****        47.7500  59.2500  53.0000 Du        
   1974 ****        47.7500  59.2500  53.2500 Du        
   1975 ****        47.7500  59.5000  52.5000 Du        
   1976 ****        47.7500  59.5000  52.7500 Du        
   1977 ****        47.7500  59.5000  53.0000 Du        
   1978 ****        47.7500  59.5000  53.2500 Du        
   1979 ****        47.7500  59.7500  52.5000 Du        
   1980 ****        47.7500  59.7500  52.7500 Du        
   1981 ****        47.7500  59.7500  53.0000 Du        
   1982 ****        47.7500  59.7500  53.2500 Du        
   1983 ****        47.7500  59.7500  53.5000 Du        
   1984 ****        47.7500  60.0000  52.5000 Du        
   1985 ****        47.7500  60.0000  52.7500 Du        
   1986 ****        47.7500  60.0000  53.0000 Du        
   1987 ****        47.7500  60.0000  53.2500 Du        
   1988 ****        47.7500  60.0000  53.5000 Du        
   1989 ****        47.7500  60.2500  52.5000 Du        
   1990 ****        47.7500  60.2500  52.7500 Du        
   1991 ****        47.7500  60.2500  53.0000 Du        
   1992 ****        47.7500  60.2500  53.2500 Du        
   1993 ****        47.7500  60.2500  53.5000 Du        
   1994 ****        47.7500  60.5000  52.5000 Du        
   1995 ****        47.7500  60.5000  52.7500 Du        
   1996 ****        47.7500  60.5000  53.0000 Du        
   1997 ****        47.7500  60.5000  53.2500 Du        
   1998 ****        47.7500  60.5000  53.5000 Du        
   1999 ****        47.7500  60.7500  52.5000 Du        
   2000 ****        47.7500  60.7500  52.7500 Du        
   2001 ****        47.7500  60.7500  53.0000 Du        
   2002 ****        47.7500  60.7500  53.2500 Du        
   2003 ****        47.7500  60.7500  53.5000 Du        
   2004 ****        47.7500  61.0000  52.7500 Du        
   2005 ****        47.7500  61.0000  53.0000 Du        
   2006 ****        47.7500  61.0000  53.2500 Du        
   2007 ****        47.7500  61.2500  52.7500 Du        
   2008 ****        47.7500  61.2500  53.0000 Du        
   2009 ****        48.0000  49.7500  55.0000 Du        
   2010 ****        48.0000  50.0000  54.7500 Du        
   2011 ****        48.0000  58.0000  52.5000 Du        
   2012 ****        48.0000  58.2500  52.5000 Du        
   2013 ****        48.0000  58.2500  52.7500 Du        
   2014 ****        48.0000  58.5000  52.5000 Du        
   2015 ****        48.0000  58.5000  52.7500 Du        
   2016 ****        48.0000  58.5000  53.0000 Du        
   2017 ****        48.0000  58.7500  52.5000 Du        
   2018 ****        48.0000  58.7500  52.7500 Du        
   2019 ****        48.0000  58.7500  53.0000 Du        
   2020 ****        48.0000  59.0000  52.5000 Du        
   2021 ****        48.0000  59.0000  52.7500 Du        
   2022 ****        48.0000  59.0000  53.0000 Du        
   2023 ****        48.0000  59.2500  52.5000 Du        
   2024 ****        48.0000  59.2500  52.7500 Du        
   2025 ****        48.0000  59.2500  53.0000 Du        
   2026 ****        48.0000  59.5000  52.7500 Du        
   2027 ****        48.0000  59.5000  53.0000 Du        
   2028 ****        48.0000  59.7500  52.7500 Du        
   2029 ****        48.0000  59.7500  53.0000 Du        
   2030 ****        48.0000  59.7500  53.2500 Du        
   2031 ****        48.0000  60.0000  52.7500 Du        
   2032 ****        48.0000  60.0000  53.0000 Du        
   2033 ****        48.0000  60.0000  53.2500 Du        
   2034 ****        48.0000  60.0000  53.5000 Du        
   2035 ****        48.0000  60.2500  52.7500 Du        
   2036 ****        48.0000  60.2500  53.0000 Du        
   2037 ****        48.0000  60.2500  53.2500 Du        
   2038 ****        48.0000  60.2500  53.5000 Du        
   2039 ****        48.0000  60.5000  52.7500 Du        
   2040 ****        48.0000  60.5000  53.0000 Du        
   2041 ****        48.0000  60.5000  53.2500 Du        
   2042 ****        48.0000  60.5000  53.5000 Du        
   2043 ****        48.0000  60.7500  52.7500 Du        
   2044 ****        48.0000  60.7500  53.0000 Du        
   2045 ****        48.0000  60.7500  53.2500 Du        
   2046 ****        48.0000  60.7500  53.5000 Du        
   2047 ****        48.0000  61.0000  52.7500 Du        
   2048 ****        48.0000  61.0000  53.0000 Du        
   2049 ****        48.0000  61.0000  53.2500 Du        
   2050 ****        48.0000  61.0000  53.5000 Du        
   2051 ****        48.0000  61.2500  52.7500 Du        
   2052 ****        48.0000  61.2500  53.0000 Du        
   2053 ****        48.0000  61.2500  53.2500 Du        
   2054 ****        48.0000  61.5000  53.0000 Du        
   2055 ****        48.2500  49.5000  54.7500 Du        
   2056 ****        48.2500  49.5000  55.0000 Du        
   2057 ****        48.2500  49.5000  55.2500 Du        
   2058 ****        48.2500  49.7500  54.5000 Du        
   2059 ****        48.2500  49.7500  54.7500 Du        
   2060 ****        48.2500  49.7500  55.0000 Du        
   2061 ****        48.2500  49.7500  55.2500 Du        
   2062 ****        48.2500  50.0000  54.5000 Du        
   2063 ****        48.2500  50.0000  54.7500 Du        
   2064 ****        48.2500  50.0000  55.0000 Du        
   2065 ****        48.2500  50.2500  54.5000 Du        
   2066 ****        48.2500  58.2500  52.5000 Du        
   2067 ****        48.2500  58.2500  52.7500 Du        
   2068 ****        48.2500  58.5000  52.5000 Du        
   2069 ****        48.2500  58.5000  52.7500 Du        
   2070 ****        48.2500  58.7500  52.5000 Du        
   2071 ****        48.2500  58.7500  52.7500 Du        
   2072 ****        48.2500  59.0000  52.7500 Du        
   2073 ****        48.2500  59.0000  53.0000 Du        
   2074 ****        48.2500  59.2500  52.7500 Du        
   2075 ****        48.2500  60.2500  53.2500 Du        
   2076 ****        48.2500  60.2500  53.5000 Du        
   2077 ****        48.2500  60.5000  53.2500 Du        
   2078 ****        48.2500  60.5000  53.5000 Du        
   2079 ****        48.2500  60.7500  53.2500 Du        
   2080 ****        48.2500  60.7500  53.5000 Du        
   2081 ****        48.2500  61.0000  53.2500 Du        
   2082 ****        48.2500  61.0000  53.5000 Du        
   2083 ****        48.2500  61.2500  53.2500 Du        
   2084 ****        48.2500  63.5000  52.0000 Du        
   2085 ****        48.5000  49.2500  54.7500 Du        
   2086 ****        48.5000  49.2500  55.0000 Du        
   2087 ****        48.5000  49.2500  55.2500 Du        
   2088 ****        48.5000  49.2500  55.5000 Du        
   2089 ****        48.5000  49.5000  54.2500 Du        
   2090 ****        48.5000  49.5000  54.5000 Du        
   2091 ****        48.5000  49.5000  54.7500 Du        
   2092 ****        48.5000  49.5000  55.0000 Du        
   2093 ****        48.5000  49.5000  55.2500 Du        
   2094 ****        48.5000  49.5000  55.5000 Du        
   2095 ****        48.5000  49.7500  54.0000 Du        
   2096 ****        48.5000  49.7500  54.2500 Du        
   2097 ****        48.5000  49.7500  54.5000 Du        
   2098 ****        48.5000  49.7500  54.7500 Du        
   2099 ****        48.5000  49.7500  55.0000 Du        
   2100 ****        48.5000  49.7500  55.2500 Du        
   2101 ****        48.5000  50.0000  54.0000 Du        
   2102 ****        48.5000  50.0000  54.2500 Du        
   2103 ****        48.5000  50.0000  54.5000 Du        
   2104 ****        48.5000  50.0000  54.7500 Du        
   2105 ****        48.5000  50.0000  55.0000 Du        
   2106 ****        48.5000  50.2500  54.0000 Du        
   2107 ****        48.5000  50.2500  54.2500 Du        
   2108 ****        48.5000  50.2500  54.5000 Du        
   2109 ****        48.5000  50.2500  54.7500 Du        
   2110 ****        48.5000  58.2500  52.5000 Du        
   2111 ****        48.5000  63.2500  52.2500 Du        
   2112 ****        48.5000  63.2500  52.5000 Du        
   2113 ****        48.5000  63.5000  51.7500 Du        
   2114 ****        48.5000  63.5000  52.0000 Du        
   2115 ****        48.5000  63.5000  52.2500 Du        
   2116 ****        48.5000  63.5000  52.5000 Du        
   2117 ****        48.5000  63.7500  51.5000 Du        
   2118 ****        48.5000  63.7500  51.7500 Du        
   2119 ****        48.5000  63.7500  52.0000 Du        
   2120 ****        48.7500  49.0000  54.7500 Du        
   2121 ****        48.7500  49.0000  55.0000 Du        
   2122 ****        48.7500  49.0000  55.2500 Du        
   2123 ****        48.7500  49.0000  55.5000 Du        
   2124 ****        48.7500  49.2500  54.2500 Du        
   2125 ****        48.7500  49.2500  54.5000 Du        
   2126 ****        48.7500  49.2500  54.7500 Du        
   2127 ****        48.7500  49.2500  55.0000 Du        
   2128 ****        48.7500  49.2500  55.2500 Du        
   2129 ****        48.7500  49.2500  55.5000 Du        
   2130 ****        48.7500  49.5000  53.7500 Du        
   2131 ****        48.7500  49.5000  54.0000 Du        
   2132 ****        48.7500  49.5000  54.2500 Du        
   2133 ****        48.7500  49.5000  54.5000 Du        
   2134 ****        48.7500  49.5000  54.7500 Du        
   2135 ****        48.7500  49.5000  55.0000 Du        
   2136 ****        48.7500  49.5000  55.2500 Du        
   2137 ****        48.7500  49.5000  55.5000 Du        
   2138 ****        48.7500  49.7500  53.7500 Du        
   2139 ****        48.7500  49.7500  54.0000 Du        
   2140 ****        48.7500  49.7500  54.2500 Du        
   2141 ****        48.7500  49.7500  54.5000 Du        
   2142 ****        48.7500  49.7500  54.7500 Du        
   2143 ****        48.7500  49.7500  55.0000 Du        
   2144 ****        48.7500  49.7500  55.2500 Du        
   2145 ****        48.7500  50.0000  53.7500 Du        
   2146 ****        48.7500  50.0000  54.0000 Du        
   2147 ****        48.7500  50.0000  54.2500 Du        
   2148 ****        48.7500  50.0000  54.5000 Du        
   2149 ****        48.7500  50.0000  54.7500 Du        
   2150 ****        48.7500  50.0000  55.0000 Du        
   2151 ****        48.7500  50.2500  54.0000 Du        
   2152 ****        48.7500  50.2500  54.2500 Du        
   2153 ****        48.7500  50.2500  54.5000 Du        
   2154 ****        48.7500  50.2500  54.7500 Du        
   2155 ****        48.7500  57.5000  51.5000 Du        
   2156 ****        48.7500  57.7500  51.5000 Du        
   2157 ****        48.7500  57.7500  51.7500 Du        
   2158 ****        48.7500  63.0000  53.0000 Du        
   2159 ****        48.7500  63.2500  52.5000 Du        
   2160 ****        48.7500  63.2500  52.7500 Du        
   2161 ****        48.7500  63.2500  53.0000 Du        
   2162 ****        48.7500  63.5000  52.2500 Du        
   2163 ****        48.7500  63.5000  52.5000 Du        
   2164 ****        48.7500  63.5000  52.7500 Du        
   2165 ****        48.7500  63.5000  53.0000 Du        
   2166 ****        48.7500  63.7500  51.7500 Du        
   2167 ****        48.7500  63.7500  52.0000 Du        
   2168 ****        48.7500  63.7500  52.2500 Du        
   2169 ****        48.7500  63.7500  52.5000 Du        
   2170 ****        48.7500  63.7500  52.7500 Du        
   2171 ****        49.0000  49.0000  54.7500 Du        
   2172 ****        49.0000  49.0000  55.0000 Du        
   2173 ****        49.0000  49.0000  55.2500 Du        
   2174 ****        49.0000  49.2500  54.2500 Du        
   2175 ****        49.0000  49.2500  54.5000 Du        
   2176 ****        49.0000  49.2500  54.7500 Du        
   2177 ****        49.0000  49.2500  55.0000 Du        
   2178 ****        49.0000  49.2500  55.2500 Du        
   2179 ****        49.0000  49.5000  54.0000 Du        
   2180 ****        49.0000  49.5000  54.2500 Du        
   2181 ****        49.0000  49.5000  54.5000 Du        
   2182 ****        49.0000  49.5000  54.7500 Du        
   2183 ****        49.0000  49.5000  55.0000 Du        
   2184 ****        49.0000  49.5000  55.2500 Du        
   2185 ****        49.0000  49.7500  53.7500 Du        
   2186 ****        49.0000  49.7500  54.0000 Du        
   2187 ****        49.0000  49.7500  54.2500 Du        
   2188 ****        49.0000  49.7500  54.5000 Du        
   2189 ****        49.0000  49.7500  54.7500 Du        
   2190 ****        49.0000  49.7500  55.0000 Du        
   2191 ****        49.0000  50.0000  54.0000 Du        
   2192 ****        49.0000  50.0000  54.2500 Du        
   2193 ****        49.0000  50.0000  54.5000 Du        
   2194 ****        49.0000  50.0000  54.7500 Du        
   2195 ****        49.0000  50.0000  55.0000 Du        
   2196 ****        49.0000  50.2500  54.2500 Du        
   2197 ****        49.0000  50.2500  54.5000 Du        
   2198 ****        49.0000  57.5000  51.5000 Du        
   2199 ****        49.0000  63.0000  53.2500 Du        
   2200 ****        49.0000  63.0000  53.5000 Du        
   2201 ****        49.0000  63.0000  53.7500 Du        
   2202 ****        49.0000  63.2500  52.7500 Du        
   2203 ****        49.0000  63.2500  53.0000 Du        
   2204 ****        49.0000  63.2500  53.2500 Du        
   2205 ****        49.0000  63.2500  53.5000 Du        
   2206 ****        49.0000  63.5000  52.5000 Du        
   2207 ****        49.0000  63.5000  52.7500 Du        
   2208 ****        49.0000  63.5000  53.0000 Du        
   2209 ****        49.0000  63.5000  53.2500 Du        
   2210 ****        49.0000  63.5000  53.5000 Du        
   2211 ****        49.0000  63.7500  52.0000 Du        
   2212 ****        49.0000  63.7500  52.2500 Du        
   2213 ****        49.0000  63.7500  52.5000 Du        
   2214 ****        49.0000  63.7500  52.7500 Du        
   2215 ****        49.0000  63.7500  53.0000 Du        
   2216 ****        49.0000  63.7500  53.2500 Du        
   2217 ****        49.0000  64.0000  51.2500 Du        
   2218 ****        49.0000  64.0000  51.5000 Du        
   2219 ****        49.0000  70.7500  57.7500 Du        
   2220 ****        49.2500  49.7500  54.2500 Du        
   2221 ****        49.2500  49.7500  54.5000 Du        
   2222 ****        49.2500  50.0000  54.2500 Du        
   2223 ****        49.2500  50.0000  54.5000 Du        
   2224 ****        49.2500  63.0000  53.5000 Du        
   2225 ****        49.2500  63.0000  53.7500 Du        
   2226 ****        49.2500  63.2500  53.2500 Du        
   2227 ****        49.2500  63.2500  53.5000 Du        
   2228 ****        49.2500  63.2500  53.7500 Du        
   2229 ****        49.2500  63.5000  52.7500 Du        
   2230 ****        49.2500  63.5000  53.0000 Du        
   2231 ****        49.2500  63.5000  53.2500 Du        
   2232 ****        49.2500  63.5000  53.5000 Du        
   2233 ****        49.2500  63.5000  53.7500 Du        
   2234 ****        49.2500  63.7500  52.5000 Du        
   2235 ****        49.2500  63.7500  52.7500 Du        
   2236 ****        49.2500  63.7500  53.0000 Du        
   2237 ****        49.2500  63.7500  53.2500 Du        
   2238 ****        49.2500  63.7500  53.5000 Du        
   2239 ****        49.2500  70.5000  57.0000 Du        
   2240 ****        49.2500  70.5000  57.2500 Du        
   2241 ****        49.2500  70.7500  57.0000 Du        
   2242 ****        49.2500  70.7500  57.2500 Du        
   2243 ****        49.2500  70.7500  57.5000 Du        
   2244 ****        49.5000  63.2500  53.5000 Du        
   2245 ****        49.5000  63.2500  53.7500 Du        
   2246 ****        49.5000  63.2500  54.0000 Du        
   2247 ****        49.5000  63.5000  53.0000 Du        
   2248 ****        49.5000  63.5000  53.2500 Du        
   2249 ****        49.5000  63.5000  53.5000 Du        
   2250 ****        49.5000  63.5000  53.7500 Du        
   2251 ****        49.5000  63.5000  54.0000 Du        
   2252 ****        49.5000  63.7500  52.5000 Du        
   2253 ****        49.5000  63.7500  52.7500 Du        
   2254 ****        49.5000  63.7500  53.0000 Du        
   2255 ****        49.5000  63.7500  53.2500 Du        
   2256 ****        49.5000  63.7500  53.5000 Du        
   2257 ****        49.5000  63.7500  53.7500 Du        
   2258 ****        49.5000  70.5000  56.7500 Du        
   2259 ****        49.5000  70.5000  57.0000 Du        
   2260 ****        49.5000  70.7500  57.0000 Du        
   2261 ****        49.5000  73.7500  48.5000 Du        
   2262 ****        49.5000  73.7500  48.7500 Du        
   2263 ****        49.5000  74.0000  48.2500 Du        
   2264 ****        49.5000  74.0000  48.5000 Du        
   2265 ****        49.5000  74.0000  48.7500 Du        
   2266 ****        49.7500  57.0000  60.7500 Du        
   2267 ****        49.7500  57.0000  61.0000 Du        
   2268 ****        49.7500  57.0000  61.2500 Du        
   2269 ****        49.7500  57.0000  61.5000 Du        
   2270 ****        49.7500  57.0000  61.7500 Du        
   2271 ****        49.7500  57.0000  62.0000 Du        
   2272 ****        49.7500  57.2500  61.0000 Du        
   2273 ****        49.7500  57.2500  61.2500 Du        
   2274 ****        49.7500  57.2500  61.5000 Du        
   2275 ****        49.7500  57.2500  61.7500 Du        
   2276 ****        49.7500  57.5000  61.2500 Du        
   2277 ****        49.7500  70.2500  56.0000 Du        
   2278 ****        49.7500  70.2500  56.2500 Du        
   2279 ****        49.7500  70.5000  56.0000 Du        
   2280 ****        49.7500  70.5000  56.2500 Du        
   2281 ****        49.7500  70.5000  56.5000 Du        
   2282 ****        49.7500  73.5000  48.2500 Du        
   2283 ****        49.7500  73.7500  48.0000 Du        
   2284 ****        49.7500  73.7500  48.2500 Du        
   2285 ****        49.7500  73.7500  48.5000 Du        
   2286 ****        49.7500  73.7500  48.7500 Du        
   2287 ****        49.7500  74.0000  48.0000 Du        
   2288 ****        49.7500  74.0000  48.2500 Du        
   2289 ****        49.7500  74.0000  48.5000 Du        
   2290 ****        49.7500  74.0000  48.7500 Du        
   2291 ****        49.7500  74.2500  48.2500 Du        
   2292 ****        49.7500  74.2500  48.5000 Du        
   2293 ****        49.7500  74.2500  48.7500 Du        
   2294 ****        50.0000  56.7500  61.0000 Du        
   2295 ****        50.0000  56.7500  61.2500 Du        
   2296 ****        50.0000  56.7500  61.5000 Du        
   2297 ****        50.0000  56.7500  61.7500 Du        
   2298 ****        50.0000  56.7500  62.0000 Du        
   2299 ****        50.0000  56.7500  62.2500 Du        
   2300 ****        50.0000  56.7500  62.5000 Du        
   2301 ****        50.0000  56.7500  62.7500 Du        
   2302 ****        50.0000  57.0000  60.7500 Du        
   2303 ****        50.0000  57.0000  61.0000 Du        
   2304 ****        50.0000  57.0000  61.2500 Du        
   2305 ****        50.0000  57.0000  61.5000 Du        
   2306 ****        50.0000  57.0000  61.7500 Du        
   2307 ****        50.0000  57.0000  62.0000 Du        
   2308 ****        50.0000  57.0000  62.2500 Du        
   2309 ****        50.0000  57.0000  62.5000 Du        
   2310 ****        50.0000  57.0000  62.7500 Du        
   2311 ****        50.0000  57.0000  63.0000 Du        
   2312 ****        50.0000  57.2500  61.0000 Du        
   2313 ****        50.0000  57.2500  61.2500 Du        
   2314 ****        50.0000  57.2500  61.5000 Du        
   2315 ****        50.0000  57.2500  61.7500 Du        
   2316 ****        50.0000  57.2500  62.0000 Du        
   2317 ****        50.0000  57.2500  62.2500 Du        
   2318 ****        50.0000  57.5000  61.0000 Du        
   2319 ****        50.0000  57.5000  61.2500 Du        
   2320 ****        50.0000  57.5000  61.5000 Du        
   2321 ****        50.0000  57.5000  61.7500 Du        
   2322 ****        50.0000  57.5000  62.0000 Du        
   2323 ****        50.0000  64.5000  50.5000 Du        
   2324 ****        50.0000  64.5000  50.7500 Du        
   2325 ****        50.0000  70.2500  55.5000 Du        
   2326 ****        50.0000  70.2500  55.7500 Du        
   2327 ****        50.0000  70.2500  56.0000 Du        
   2328 ****        50.0000  70.5000  55.5000 Du        
   2329 ****        50.0000  70.5000  55.7500 Du        
   2330 ****        50.0000  70.5000  56.0000 Du        
   2331 ****        50.0000  70.5000  56.2500 Du        
   2332 ****        50.0000  70.7500  55.7500 Du        
   2333 ****        50.0000  70.7500  56.0000 Du        
   2334 ****        50.0000  73.5000  48.0000 Du        
   2335 ****        50.0000  73.5000  48.2500 Du        
   2336 ****        50.0000  73.5000  48.5000 Du        
   2337 ****        50.0000  73.7500  48.0000 Du        
   2338 ****        50.0000  73.7500  48.2500 Du        
   2339 ****        50.0000  73.7500  48.5000 Du        
   2340 ****        50.0000  73.7500  48.7500 Du        
   2341 ****        50.0000  74.0000  48.0000 Du        
   2342 ****        50.0000  74.0000  48.2500 Du        
   2343 ****        50.0000  74.0000  48.5000 Du        
   2344 ****        50.0000  74.0000  48.7500 Du        
   2345 ****        50.0000  74.2500  48.0000 Du        
   2346 ****        50.0000  74.2500  48.2500 Du        
   2347 ****        50.0000  74.2500  48.5000 Du        
   2348 ****        50.0000  74.2500  48.7500 Du        
   2349 ****        50.0000  74.5000  48.5000 Du        
   2350 ****        50.2500  56.5000  62.0000 Du        
   2351 ****        50.2500  56.5000  62.2500 Du        
   2352 ****        50.2500  56.7500  60.7500 Du        
   2353 ****        50.2500  56.7500  61.0000 Du        
   2354 ****        50.2500  56.7500  61.2500 Du        
   2355 ****        50.2500  56.7500  61.5000 Du        
   2356 ****        50.2500  56.7500  61.7500 Du        
   2357 ****        50.2500  56.7500  62.0000 Du        
   2358 ****        50.2500  56.7500  62.2500 Du        
   2359 ****        50.2500  56.7500  62.5000 Du        
   2360 ****        50.2500  56.7500  62.7500 Du        
   2361 ****        50.2500  56.7500  63.0000 Du        
   2362 ****        50.2500  56.7500  63.2500 Du        
   2363 ****        50.2500  57.0000  60.7500 Du        
   2364 ****        50.2500  57.0000  61.0000 Du        
   2365 ****        50.2500  57.0000  61.2500 Du        
   2366 ****        50.2500  57.0000  61.5000 Du        
   2367 ****        50.2500  57.0000  61.7500 Du        
   2368 ****        50.2500  57.0000  62.0000 Du        
   2369 ****        50.2500  57.0000  62.2500 Du        
   2370 ****        50.2500  57.0000  62.5000 Du        
   2371 ****        50.2500  57.0000  62.7500 Du        
   2372 ****        50.2500  57.0000  63.0000 Du        
   2373 ****        50.2500  57.0000  63.2500 Du        
   2374 ****        50.2500  57.2500  61.0000 Du        
   2375 ****        50.2500  57.2500  61.2500 Du        
   2376 ****        50.2500  57.2500  61.5000 Du        
   2377 ****        50.2500  57.2500  61.7500 Du        
   2378 ****        50.2500  57.2500  62.0000 Du        
   2379 ****        50.2500  57.2500  62.2500 Du        
   2380 ****        50.2500  57.2500  62.5000 Du        
   2381 ****        50.2500  57.2500  62.7500 Du        
   2382 ****        50.2500  57.2500  63.0000 Du        
   2383 ****        50.2500  57.5000  61.2500 Du        
   2384 ****        50.2500  57.5000  61.5000 Du        
   2385 ****        50.2500  57.5000  61.7500 Du        
   2386 ****        50.2500  57.5000  62.0000 Du        
   2387 ****        50.2500  57.5000  62.2500 Du        
   2388 ****        50.2500  64.5000  50.5000 Du        
   2389 ****        50.2500  64.7500  50.5000 Du        
   2390 ****        50.2500  70.0000  55.2500 Du        
   2391 ****        50.2500  70.0000  55.5000 Du        
   2392 ****        50.2500  70.2500  55.0000 Du        
   2393 ****        50.2500  70.2500  55.2500 Du        
   2394 ****        50.2500  70.2500  55.5000 Du        
   2395 ****        50.2500  70.2500  55.7500 Du        
   2396 ****        50.2500  70.2500  56.0000 Du        
   2397 ****        50.2500  70.5000  55.2500 Du        
   2398 ****        50.2500  70.5000  55.5000 Du        
   2399 ****        50.2500  70.5000  55.7500 Du        
   2400 ****        50.2500  70.5000  56.0000 Du        
   2401 ****        50.2500  70.7500  55.2500 Du        
   2402 ****        50.2500  70.7500  55.5000 Du        
   2403 ****        50.2500  70.7500  55.7500 Du        
   2404 ****        50.2500  70.7500  56.0000 Du        
   2405 ****        50.2500  73.5000  48.2500 Du        
   2406 ****        50.2500  73.7500  48.2500 Du        
   2407 ****        50.2500  73.7500  48.5000 Du        
   2408 ****        50.2500  74.0000  48.0000 Du        
   2409 ****        50.2500  74.0000  48.2500 Du        
   2410 ****        50.2500  74.0000  48.5000 Du        
   2411 ****        50.2500  74.0000  48.7500 Du        
   2412 ****        50.2500  74.2500  48.0000 Du        
   2413 ****        50.2500  74.2500  48.2500 Du        
   2414 ****        50.2500  74.2500  48.5000 Du        
   2415 ****        50.2500  74.2500  48.7500 Du        
   2416 ****        50.2500  74.5000  48.2500 Du        
   2417 ****        50.2500  74.5000  48.5000 Du        
   2418 ****        50.2500  74.5000  48.7500 Du        
   2419 ****        50.5000  48.7500  50.7500 Du        
   2420 ****        50.5000  49.0000  50.5000 Du        
   2421 ****        50.5000  49.0000  50.7500 Du        
   2422 ****        50.5000  49.2500  50.2500 Du        
   2423 ****        50.5000  49.2500  50.5000 Du        
   2424 ****        50.5000  49.2500  50.7500 Du        
   2425 ****        50.5000  49.2500  51.0000 Du        
   2426 ****        50.5000  49.5000  50.2500 Du        
   2427 ****        50.5000  49.5000  50.5000 Du        
   2428 ****        50.5000  49.5000  50.7500 Du        
   2429 ****        50.5000  49.5000  51.0000 Du        
   2430 ****        50.5000  49.7500  50.0000 Du        
   2431 ****        50.5000  49.7500  50.2500 Du        
   2432 ****        50.5000  49.7500  50.5000 Du        
   2433 ****        50.5000  49.7500  50.7500 Du        
   2434 ****        50.5000  49.7500  51.0000 Du        
   2435 ****        50.5000  50.0000  50.5000 Du        
   2436 ****        50.5000  56.5000  61.5000 Du        
   2437 ****        50.5000  56.5000  61.7500 Du        
   2438 ****        50.5000  56.5000  62.0000 Du        
   2439 ****        50.5000  56.5000  62.2500 Du        
   2440 ****        50.5000  56.7500  60.7500 Du        
   2441 ****        50.5000  56.7500  61.0000 Du        
   2442 ****        50.5000  56.7500  61.2500 Du        
   2443 ****        50.5000  56.7500  61.5000 Du        
   2444 ****        50.5000  56.7500  61.7500 Du        
   2445 ****        50.5000  56.7500  62.0000 Du        
   2446 ****        50.5000  56.7500  62.2500 Du        
   2447 ****        50.5000  56.7500  62.5000 Du        
   2448 ****        50.5000  56.7500  62.7500 Du        
   2449 ****        50.5000  56.7500  63.0000 Du        
   2450 ****        50.5000  56.7500  63.2500 Du        
   2451 ****        50.5000  57.0000  60.7500 Du        
   2452 ****        50.5000  57.0000  61.0000 Du        
   2453 ****        50.5000  57.0000  61.2500 Du        
   2454 ****        50.5000  57.0000  61.5000 Du        
   2455 ****        50.5000  57.0000  61.7500 Du        
   2456 ****        50.5000  57.0000  62.0000 Du        
   2457 ****        50.5000  57.0000  62.2500 Du        
   2458 ****        50.5000  57.0000  62.5000 Du        
   2459 ****        50.5000  57.0000  62.7500 Du        
   2460 ****        50.5000  57.0000  63.0000 Du        
   2461 ****        50.5000  57.0000  63.2500 Du        
   2462 ****        50.5000  57.2500  61.0000 Du        
   2463 ****        50.5000  57.2500  61.2500 Du        
   2464 ****        50.5000  57.2500  61.5000 Du        
   2465 ****        50.5000  57.2500  61.7500 Du        
   2466 ****        50.5000  57.2500  62.0000 Du        
   2467 ****        50.5000  57.2500  62.2500 Du        
   2468 ****        50.5000  57.2500  62.5000 Du        
   2469 ****        50.5000  57.2500  62.7500 Du        
   2470 ****        50.5000  57.2500  63.0000 Du        
   2471 ****        50.5000  57.2500  63.2500 Du        
   2472 ****        50.5000  57.5000  61.2500 Du        
   2473 ****        50.5000  57.5000  61.5000 Du        
   2474 ****        50.5000  57.5000  61.7500 Du        
   2475 ****        50.5000  57.5000  62.0000 Du        
   2476 ****        50.5000  57.5000  62.2500 Du        
   2477 ****        50.5000  57.5000  62.5000 Du        
   2478 ****        50.5000  57.7500  61.5000 Du        
   2479 ****        50.5000  57.7500  61.7500 Du        
   2480 ****        50.5000  64.5000  50.0000 Du        
   2481 ****        50.5000  64.5000  50.2500 Du        
   2482 ****        50.5000  64.5000  50.5000 Du        
   2483 ****        50.5000  64.7500  50.0000 Du        
   2484 ****        50.5000  64.7500  50.2500 Du        
   2485 ****        50.5000  64.7500  50.5000 Du        
   2486 ****        50.5000  65.0000  50.0000 Du        
   2487 ****        50.5000  65.0000  50.2500 Du        
   2488 ****        50.5000  70.2500  55.0000 Du        
   2489 ****        50.5000  70.2500  55.2500 Du        
   2490 ****        50.5000  70.2500  55.5000 Du        
   2491 ****        50.5000  70.2500  55.7500 Du        
   2492 ****        50.5000  70.5000  55.0000 Du        
   2493 ****        50.5000  70.5000  55.2500 Du        
   2494 ****        50.5000  70.5000  55.5000 Du        
   2495 ****        50.5000  70.5000  55.7500 Du        
   2496 ****        50.5000  70.7500  55.2500 Du        
   2497 ****        50.5000  70.7500  55.5000 Du        
   2498 ****        50.5000  70.7500  55.7500 Du        
   2499 ****        50.5000  73.7500  48.0000 Du        
   2500 ****        50.5000  73.7500  48.2500 Du        
   2501 ****        50.5000  74.0000  48.0000 Du        
   2502 ****        50.5000  74.0000  48.2500 Du        
   2503 ****        50.5000  74.0000  48.5000 Du        
   2504 ****        50.5000  74.2500  48.0000 Du        
   2505 ****        50.5000  74.2500  48.2500 Du        
   2506 ****        50.5000  74.2500  48.5000 Du        
   2507 ****        50.5000  74.2500  48.7500 Du        
   2508 ****        50.5000  74.5000  48.0000 Du        
   2509 ****        50.5000  74.5000  48.2500 Du        
   2510 ****        50.5000  74.5000  48.5000 Du        
   2511 ****        50.5000  74.5000  48.7500 Du        
   2512 ****        50.5000  74.7500  48.0000 Du        
   2513 ****        50.5000  74.7500  48.2500 Du        
   2514 ****        50.5000  74.7500  48.5000 Du        
   2515 ****        50.5000  74.7500  48.7500 Du        
   2516 ****        50.7500  47.7500  50.5000 Du        
   2517 ****        50.7500  47.7500  50.7500 Du        
   2518 ****        50.7500  47.7500  51.0000 Du        
   2519 ****        50.7500  48.0000  50.2500 Du        
   2520 ****        50.7500  48.0000  50.5000 Du        
   2521 ****        50.7500  48.0000  50.7500 Du        
   2522 ****        50.7500  48.0000  51.0000 Du        
   2523 ****        50.7500  48.2500  50.0000 Du        
   2524 ****        50.7500  48.2500  50.2500 Du        
   2525 ****        50.7500  48.2500  50.5000 Du        
   2526 ****        50.7500  48.2500  50.7500 Du        
   2527 ****        50.7500  48.2500  51.0000 Du        
   2528 ****        50.7500  48.5000  49.7500 Du        
   2529 ****        50.7500  48.5000  50.0000 Du        
   2530 ****        50.7500  48.5000  50.2500 Du        
   2531 ****        50.7500  48.5000  50.5000 Du        
   2532 ****        50.7500  48.5000  50.7500 Du        
   2533 ****        50.7500  48.5000  51.0000 Du        
   2534 ****        50.7500  48.7500  49.7500 Du        
   2535 ****        50.7500  48.7500  50.0000 Du        
   2536 ****        50.7500  48.7500  50.2500 Du        
   2537 ****        50.7500  48.7500  50.5000 Du        
   2538 ****        50.7500  48.7500  50.7500 Du        
   2539 ****        50.7500  48.7500  51.0000 Du        
   2540 ****        50.7500  49.0000  49.5000 Du        
   2541 ****        50.7500  49.0000  49.7500 Du        
   2542 ****        50.7500  49.0000  50.0000 Du        
   2543 ****        50.7500  49.0000  50.2500 Du        
   2544 ****        50.7500  49.0000  50.5000 Du        
   2545 ****        50.7500  49.0000  50.7500 Du        
   2546 ****        50.7500  49.0000  51.0000 Du        
   2547 ****        50.7500  49.2500  49.7500 Du        
   2548 ****        50.7500  49.2500  50.0000 Du        
   2549 ****        50.7500  49.2500  50.2500 Du        
   2550 ****        50.7500  49.2500  50.5000 Du        
   2551 ****        50.7500  49.2500  50.7500 Du        
   2552 ****        50.7500  49.2500  51.0000 Du        
   2553 ****        50.7500  49.5000  49.7500 Du        
   2554 ****        50.7500  49.5000  50.0000 Du        
   2555 ****        50.7500  49.5000  50.2500 Du        
   2556 ****        50.7500  49.5000  50.5000 Du        
   2557 ****        50.7500  49.5000  50.7500 Du        
   2558 ****        50.7500  49.5000  51.0000 Du        
   2559 ****        50.7500  49.7500  50.0000 Du        
   2560 ****        50.7500  49.7500  50.2500 Du        
   2561 ****        50.7500  49.7500  50.5000 Du        
   2562 ****        50.7500  49.7500  50.7500 Du        
   2563 ****        50.7500  49.7500  51.0000 Du        
   2564 ****        50.7500  50.0000  50.0000 Du        
   2565 ****        50.7500  50.0000  50.2500 Du        
   2566 ****        50.7500  50.0000  50.5000 Du        
   2567 ****        50.7500  50.0000  50.7500 Du        
   2568 ****        50.7500  56.5000  61.0000 Du        
   2569 ****        50.7500  56.5000  61.2500 Du        
   2570 ****        50.7500  56.5000  61.5000 Du        
   2571 ****        50.7500  56.5000  61.7500 Du        
   2572 ****        50.7500  56.5000  62.0000 Du        
   2573 ****        50.7500  56.5000  62.2500 Du        
   2574 ****        50.7500  56.5000  62.5000 Du        
   2575 ****        50.7500  56.7500  60.7500 Du        
   2576 ****        50.7500  56.7500  61.0000 Du        
   2577 ****        50.7500  56.7500  61.2500 Du        
   2578 ****        50.7500  56.7500  61.5000 Du        
   2579 ****        50.7500  56.7500  61.7500 Du        
   2580 ****        50.7500  56.7500  62.0000 Du        
   2581 ****        50.7500  56.7500  62.2500 Du        
   2582 ****        50.7500  56.7500  62.5000 Du        
   2583 ****        50.7500  56.7500  62.7500 Du        
   2584 ****        50.7500  56.7500  63.0000 Du        
   2585 ****        50.7500  56.7500  63.2500 Du        
   2586 ****        50.7500  57.0000  61.0000 Du        
   2587 ****        50.7500  57.0000  61.2500 Du        
   2588 ****        50.7500  57.0000  61.5000 Du        
   2589 ****        50.7500  57.0000  61.7500 Du        
   2590 ****        50.7500  57.0000  62.0000 Du        
   2591 ****        50.7500  57.0000  62.2500 Du        
   2592 ****        50.7500  57.0000  62.5000 Du        
   2593 ****        50.7500  57.0000  62.7500 Du        
   2594 ****        50.7500  57.0000  63.0000 Du        
   2595 ****        50.7500  57.0000  63.2500 Du        
   2596 ****        50.7500  57.0000  63.5000 Du        
   2597 ****        50.7500  57.2500  61.0000 Du        
   2598 ****        50.7500  57.2500  61.2500 Du        
   2599 ****        50.7500  57.2500  61.5000 Du        
   2600 ****        50.7500  57.2500  61.7500 Du        
   2601 ****        50.7500  57.2500  62.0000 Du        
   2602 ****        50.7500  57.2500  62.2500 Du        
   2603 ****        50.7500  57.2500  62.5000 Du        
   2604 ****        50.7500  57.2500  62.7500 Du        
   2605 ****        50.7500  57.2500  63.0000 Du        
   2606 ****        50.7500  57.2500  63.2500 Du        
   2607 ****        50.7500  57.2500  63.5000 Du        
   2608 ****        50.7500  57.5000  61.2500 Du        
   2609 ****        50.7500  57.5000  61.5000 Du        
   2610 ****        50.7500  57.5000  61.7500 Du        
   2611 ****        50.7500  57.5000  62.0000 Du        
   2612 ****        50.7500  57.5000  62.2500 Du        
   2613 ****        50.7500  57.5000  62.5000 Du        
   2614 ****        50.7500  57.5000  62.7500 Du        
   2615 ****        50.7500  57.5000  63.0000 Du        
   2616 ****        50.7500  57.5000  63.2500 Du        
   2617 ****        50.7500  57.7500  61.5000 Du        
   2618 ****        50.7500  57.7500  61.7500 Du        
   2619 ****        50.7500  57.7500  62.0000 Du        
   2620 ****        50.7500  64.5000  49.7500 Du        
   2621 ****        50.7500  64.5000  50.0000 Du        
   2622 ****        50.7500  64.5000  50.2500 Du        
   2623 ****        50.7500  64.7500  49.7500 Du        
   2624 ****        50.7500  64.7500  50.0000 Du        
   2625 ****        50.7500  64.7500  50.2500 Du        
   2626 ****        50.7500  64.7500  50.5000 Du        
   2627 ****        50.7500  65.0000  49.7500 Du        
   2628 ****        50.7500  65.0000  50.0000 Du        
   2629 ****        50.7500  65.0000  50.2500 Du        
   2630 ****        50.7500  65.0000  50.5000 Du        
   2631 ****        50.7500  65.2500  49.7500 Du        
   2632 ****        50.7500  65.2500  50.0000 Du        
   2633 ****        50.7500  65.2500  50.2500 Du        
   2634 ****        50.7500  65.5000  49.5000 Du        
   2635 ****        50.7500  65.5000  49.7500 Du        
   2636 ****        50.7500  65.5000  50.0000 Du        
   2637 ****        50.7500  65.7500  49.5000 Du        
   2638 ****        50.7500  65.7500  49.7500 Du        
   2639 ****        50.7500  66.0000  49.5000 Du        
   2640 ****        50.7500  66.0000  49.7500 Du        
   2641 ****        50.7500  70.5000  55.0000 Du        
   2642 ****        50.7500  70.5000  55.2500 Du        
   2643 ****        50.7500  70.5000  55.5000 Du        
   2644 ****        50.7500  70.7500  55.2500 Du        
   2645 ****        50.7500  70.7500  55.5000 Du        
   2646 ****        50.7500  70.7500  55.7500 Du        
   2647 ****        50.7500  73.7500  48.0000 Du        
   2648 ****        50.7500  74.0000  48.0000 Du        
   2649 ****        50.7500  74.0000  48.2500 Du        
   2650 ****        50.7500  74.2500  48.0000 Du        
   2651 ****        50.7500  74.2500  48.2500 Du        
   2652 ****        50.7500  74.2500  48.5000 Du        
   2653 ****        50.7500  74.5000  48.0000 Du        
   2654 ****        50.7500  74.5000  48.2500 Du        
   2655 ****        50.7500  74.5000  48.5000 Du        
   2656 ****        50.7500  74.5000  48.7500 Du        
   2657 ****        50.7500  74.7500  48.0000 Du        
   2658 ****        50.7500  74.7500  48.2500 Du        
   2659 ****        50.7500  74.7500  48.5000 Du        
   2660 ****        50.7500  74.7500  48.7500 Du        
   2661 ****        50.7500  75.0000  48.0000 Du        
   2662 ****        50.7500  75.0000  48.2500 Du        
   2663 ****        50.7500  75.0000  48.5000 Du        
   2664 ****        50.7500  75.2500  48.0000 Du        
   2665 ****        50.7500  75.2500  48.2500 Du        
   2666 ****        51.0000  47.7500  50.0000 Du        
   2667 ****        51.0000  47.7500  50.2500 Du        
   2668 ****        51.0000  47.7500  50.5000 Du        
   2669 ****        51.0000  47.7500  50.7500 Du        
   2670 ****        51.0000  47.7500  51.0000 Du        
   2671 ****        51.0000  47.7500  51.2500 Du        
   2672 ****        51.0000  48.0000  49.7500 Du        
   2673 ****        51.0000  48.0000  50.0000 Du        
   2674 ****        51.0000  48.0000  50.2500 Du        
   2675 ****        51.0000  48.0000  50.5000 Du        
   2676 ****        51.0000  48.0000  50.7500 Du        
   2677 ****        51.0000  48.0000  51.0000 Du        
   2678 ****        51.0000  48.0000  51.2500 Du        
   2679 ****        51.0000  48.2500  49.5000 Du        
   2680 ****        51.0000  48.2500  49.7500 Du        
   2681 ****        51.0000  48.2500  50.0000 Du        
   2682 ****        51.0000  48.2500  50.2500 Du        
   2683 ****        51.0000  48.2500  50.5000 Du        
   2684 ****        51.0000  48.2500  50.7500 Du        
   2685 ****        51.0000  48.2500  51.0000 Du        
   2686 ****        51.0000  48.2500  51.2500 Du        
   2687 ****        51.0000  48.5000  49.2500 Du        
   2688 ****        51.0000  48.5000  49.5000 Du        
   2689 ****        51.0000  48.5000  49.7500 Du        
   2690 ****        51.0000  48.5000  50.0000 Du        
   2691 ****        51.0000  48.5000  50.2500 Du        
   2692 ****        51.0000  48.5000  50.5000 Du        
   2693 ****        51.0000  48.5000  50.7500 Du        
   2694 ****        51.0000  48.5000  51.0000 Du        
   2695 ****        51.0000  48.5000  51.2500 Du        
   2696 ****        51.0000  48.7500  49.2500 Du        
   2697 ****        51.0000  48.7500  49.5000 Du        
   2698 ****        51.0000  48.7500  49.7500 Du        
   2699 ****        51.0000  48.7500  50.0000 Du        
   2700 ****        51.0000  48.7500  50.2500 Du        
   2701 ****        51.0000  48.7500  50.5000 Du        
   2702 ****        51.0000  48.7500  50.7500 Du        
   2703 ****        51.0000  48.7500  51.0000 Du        
   2704 ****        51.0000  49.0000  49.2500 Du        
   2705 ****        51.0000  49.0000  49.5000 Du        
   2706 ****        51.0000  49.0000  49.7500 Du        
   2707 ****        51.0000  49.0000  50.0000 Du        
   2708 ****        51.0000  49.0000  50.2500 Du        
   2709 ****        51.0000  49.0000  50.5000 Du        
   2710 ****        51.0000  49.0000  50.7500 Du        
   2711 ****        51.0000  49.0000  51.0000 Du        
   2712 ****        51.0000  49.2500  49.2500 Du        
   2713 ****        51.0000  49.2500  49.5000 Du        
   2714 ****        51.0000  49.2500  49.7500 Du        
   2715 ****        51.0000  49.2500  50.0000 Du        
   2716 ****        51.0000  49.2500  50.2500 Du        
   2717 ****        51.0000  49.2500  50.5000 Du        
   2718 ****        51.0000  49.2500  50.7500 Du        
   2719 ****        51.0000  49.2500  51.0000 Du        
   2720 ****        51.0000  49.5000  49.7500 Du        
   2721 ****        51.0000  49.5000  50.0000 Du        
   2722 ****        51.0000  49.5000  50.2500 Du        
   2723 ****        51.0000  49.5000  50.5000 Du        
   2724 ****        51.0000  49.5000  50.7500 Du        
   2725 ****        51.0000  49.5000  51.0000 Du        
   2726 ****        51.0000  49.7500  49.7500 Du        
   2727 ****        51.0000  49.7500  50.0000 Du        
   2728 ****        51.0000  49.7500  50.2500 Du        
   2729 ****        51.0000  49.7500  50.5000 Du        
   2730 ****        51.0000  49.7500  50.7500 Du        
   2731 ****        51.0000  49.7500  51.0000 Du        
   2732 ****        51.0000  50.0000  49.7500 Du        
   2733 ****        51.0000  50.0000  50.0000 Du        
   2734 ****        51.0000  50.0000  50.2500 Du        
   2735 ****        51.0000  50.0000  50.5000 Du        
   2736 ****        51.0000  50.0000  50.7500 Du        
   2737 ****        51.0000  56.5000  60.7500 Du        
   2738 ****        51.0000  56.5000  61.0000 Du        
   2739 ****        51.0000  56.5000  61.2500 Du        
   2740 ****        51.0000  56.5000  61.5000 Du        
   2741 ****        51.0000  56.5000  61.7500 Du        
   2742 ****        51.0000  56.5000  62.0000 Du        
   2743 ****        51.0000  56.5000  62.2500 Du        
   2744 ****        51.0000  56.5000  62.5000 Du        
   2745 ****        51.0000  56.7500  60.7500 Du        
   2746 ****        51.0000  56.7500  61.0000 Du        
   2747 ****        51.0000  56.7500  61.2500 Du        
   2748 ****        51.0000  56.7500  61.5000 Du        
   2749 ****        51.0000  56.7500  61.7500 Du        
   2750 ****        51.0000  56.7500  62.0000 Du        
   2751 ****        51.0000  56.7500  62.2500 Du        
   2752 ****        51.0000  56.7500  62.5000 Du        
   2753 ****        51.0000  56.7500  62.7500 Du        
   2754 ****        51.0000  56.7500  63.0000 Du        
   2755 ****        51.0000  56.7500  63.2500 Du        
   2756 ****        51.0000  57.0000  61.0000 Du        
   2757 ****        51.0000  57.0000  61.2500 Du        
   2758 ****        51.0000  57.0000  61.5000 Du        
   2759 ****        51.0000  57.0000  61.7500 Du        
   2760 ****        51.0000  57.0000  62.0000 Du        
   2761 ****        51.0000  57.0000  62.2500 Du        
   2762 ****        51.0000  57.0000  62.5000 Du        
   2763 ****        51.0000  57.0000  62.7500 Du        
   2764 ****        51.0000  57.0000  63.0000 Du        
   2765 ****        51.0000  57.0000  63.2500 Du        
   2766 ****        51.0000  57.0000  63.5000 Du        
   2767 ****        51.0000  57.2500  61.0000 Du        
   2768 ****        51.0000  57.2500  61.2500 Du        
   2769 ****        51.0000  57.2500  61.5000 Du        
   2770 ****        51.0000  57.2500  61.7500 Du        
   2771 ****        51.0000  57.2500  62.0000 Du        
   2772 ****        51.0000  57.2500  62.2500 Du        
   2773 ****        51.0000  57.2500  62.5000 Du        
   2774 ****        51.0000  57.2500  62.7500 Du        
   2775 ****        51.0000  57.2500  63.0000 Du        
   2776 ****        51.0000  57.2500  63.2500 Du        
   2777 ****        51.0000  57.2500  63.5000 Du        
   2778 ****        51.0000  57.5000  61.2500 Du        
   2779 ****        51.0000  57.5000  61.5000 Du        
   2780 ****        51.0000  57.5000  61.7500 Du        
   2781 ****        51.0000  57.5000  62.0000 Du        
   2782 ****        51.0000  57.5000  62.2500 Du        
   2783 ****        51.0000  57.5000  62.5000 Du        
   2784 ****        51.0000  57.5000  62.7500 Du        
   2785 ****        51.0000  57.5000  63.0000 Du        
   2786 ****        51.0000  57.5000  63.2500 Du        
   2787 ****        51.0000  57.5000  63.5000 Du        
   2788 ****        51.0000  57.7500  61.5000 Du        
   2789 ****        51.0000  57.7500  61.7500 Du        
   2790 ****        51.0000  57.7500  62.0000 Du        
   2791 ****        51.0000  57.7500  62.2500 Du        
   2792 ****        51.0000  57.7500  62.5000 Du        
   2793 ****        51.0000  57.7500  62.7500 Du        
   2794 ****        51.0000  57.7500  63.0000 Du        
   2795 ****        51.0000  57.7500  63.2500 Du        
   2796 ****        51.0000  64.7500  49.7500 Du        
   2797 ****        51.0000  64.7500  50.0000 Du        
   2798 ****        51.0000  64.7500  50.2500 Du        
   2799 ****        51.0000  64.7500  50.5000 Du        
   2800 ****        51.0000  65.0000  49.5000 Du        
   2801 ****        51.0000  65.0000  49.7500 Du        
   2802 ****        51.0000  65.0000  50.0000 Du        
   2803 ****        51.0000  65.0000  50.2500 Du        
   2804 ****        51.0000  65.0000  50.5000 Du        
   2805 ****        51.0000  65.2500  49.5000 Du        
   2806 ****        51.0000  65.2500  49.7500 Du        
   2807 ****        51.0000  65.2500  50.0000 Du        
   2808 ****        51.0000  65.2500  50.2500 Du        
   2809 ****        51.0000  65.2500  50.5000 Du        
   2810 ****        51.0000  65.5000  49.5000 Du        
   2811 ****        51.0000  65.5000  49.7500 Du        
   2812 ****        51.0000  65.5000  50.0000 Du        
   2813 ****        51.0000  65.5000  50.2500 Du        
   2814 ****        51.0000  65.7500  49.5000 Du        
   2815 ****        51.0000  65.7500  49.7500 Du        
   2816 ****        51.0000  65.7500  50.0000 Du        
   2817 ****        51.0000  66.0000  49.5000 Du        
   2818 ****        51.0000  66.0000  49.7500 Du        
   2819 ****        51.0000  66.2500  49.7500 Du        
   2820 ****        51.0000  73.7500  48.0000 Du        
   2821 ****        51.0000  74.0000  48.0000 Du        
   2822 ****        51.0000  74.0000  48.2500 Du        
   2823 ****        51.0000  74.2500  47.7500 Du        
   2824 ****        51.0000  74.2500  48.0000 Du        
   2825 ****        51.0000  74.2500  48.2500 Du        
   2826 ****        51.0000  74.5000  47.7500 Du        
   2827 ****        51.0000  74.5000  48.0000 Du        
   2828 ****        51.0000  74.5000  48.2500 Du        
   2829 ****        51.0000  74.5000  48.5000 Du        
   2830 ****        51.0000  74.7500  47.7500 Du        
   2831 ****        51.0000  74.7500  48.0000 Du        
   2832 ****        51.0000  74.7500  48.2500 Du        
   2833 ****        51.0000  74.7500  48.5000 Du        
   2834 ****        51.0000  74.7500  48.7500 Du        
   2835 ****        51.0000  75.0000  47.7500 Du        
   2836 ****        51.0000  75.0000  48.0000 Du        
   2837 ****        51.0000  75.0000  48.2500 Du        
   2838 ****        51.0000  75.0000  48.5000 Du        
   2839 ****        51.0000  75.0000  48.7500 Du        
   2840 ****        51.0000  75.2500  48.0000 Du        
   2841 ****        51.0000  75.2500  48.2500 Du        
   2842 ****        51.0000  75.2500  48.5000 Du        
   2843 ****        51.2500  47.2500  47.5000 Du        
   2844 ****        51.2500  47.7500  48.5000 Du        
   2845 ****        51.2500  47.7500  48.7500 Du        
   2846 ****        51.2500  47.7500  49.0000 Du        
   2847 ****        51.2500  47.7500  49.2500 Du        
   2848 ****        51.2500  47.7500  49.7500 Du        
   2849 ****        51.2500  47.7500  50.0000 Du        
   2850 ****        51.2500  47.7500  50.2500 Du        
   2851 ****        51.2500  47.7500  50.5000 Du        
   2852 ****        51.2500  47.7500  50.7500 Du        
   2853 ****        51.2500  47.7500  51.0000 Du        
   2854 ****        51.2500  48.0000  48.5000 Du        
   2855 ****        51.2500  48.0000  48.7500 Du        
   2856 ****        51.2500  48.0000  49.0000 Du        
   2857 ****        51.2500  48.0000  49.2500 Du        
   2858 ****        51.2500  48.0000  49.5000 Du        
   2859 ****        51.2500  48.0000  49.7500 Du        
   2860 ****        51.2500  48.0000  50.0000 Du        
   2861 ****        51.2500  48.0000  50.2500 Du        
   2862 ****        51.2500  48.0000  50.5000 Du        
   2863 ****        51.2500  48.0000  50.7500 Du        
   2864 ****        51.2500  48.0000  51.0000 Du        
   2865 ****        51.2500  48.2500  48.7500 Du        
   2866 ****        51.2500  48.2500  49.0000 Du        
   2867 ****        51.2500  48.2500  49.2500 Du        
   2868 ****        51.2500  48.2500  49.5000 Du        
   2869 ****        51.2500  48.2500  49.7500 Du        
   2870 ****        51.2500  48.2500  50.0000 Du        
   2871 ****        51.2500  48.2500  50.2500 Du        
   2872 ****        51.2500  48.2500  50.5000 Du        
   2873 ****        51.2500  48.2500  50.7500 Du        
   2874 ****        51.2500  48.2500  51.0000 Du        
   2875 ****        51.2500  48.5000  49.2500 Du        
   2876 ****        51.2500  48.5000  49.5000 Du        
   2877 ****        51.2500  48.5000  49.7500 Du        
   2878 ****        51.2500  48.5000  50.0000 Du        
   2879 ****        51.2500  48.5000  50.2500 Du        
   2880 ****        51.2500  48.5000  50.5000 Du        
   2881 ****        51.2500  48.5000  50.7500 Du        
   2882 ****        51.2500  48.5000  51.0000 Du        
   2883 ****        51.2500  48.7500  49.0000 Du        
   2884 ****        51.2500  48.7500  49.2500 Du        
   2885 ****        51.2500  48.7500  49.5000 Du        
   2886 ****        51.2500  48.7500  49.7500 Du        
   2887 ****        51.2500  48.7500  50.0000 Du        
   2888 ****        51.2500  48.7500  50.2500 Du        
   2889 ****        51.2500  48.7500  50.5000 Du        
   2890 ****        51.2500  48.7500  50.7500 Du        
   2891 ****        51.2500  48.7500  51.0000 Du        
   2892 ****        51.2500  49.0000  49.2500 Du        
   2893 ****        51.2500  49.0000  49.5000 Du        
   2894 ****        51.2500  49.0000  49.7500 Du        
   2895 ****        51.2500  49.0000  50.0000 Du        
   2896 ****        51.2500  49.0000  50.2500 Du        
   2897 ****        51.2500  49.0000  50.5000 Du        
   2898 ****        51.2500  49.0000  50.7500 Du        
   2899 ****        51.2500  49.0000  51.0000 Du        
   2900 ****        51.2500  49.2500  49.5000 Du        
   2901 ****        51.2500  49.2500  49.7500 Du        
   2902 ****        51.2500  49.2500  50.0000 Du        
   2903 ****        51.2500  49.2500  50.2500 Du        
   2904 ****        51.2500  49.2500  50.5000 Du        
   2905 ****        51.2500  49.2500  50.7500 Du        
   2906 ****        51.2500  49.2500  51.0000 Du        
   2907 ****        51.2500  49.5000  49.5000 Du        
   2908 ****        51.2500  49.5000  49.7500 Du        
   2909 ****        51.2500  49.5000  50.0000 Du        
   2910 ****        51.2500  49.5000  50.2500 Du        
   2911 ****        51.2500  49.5000  50.5000 Du        
   2912 ****        51.2500  49.5000  50.7500 Du        
   2913 ****        51.2500  49.5000  51.0000 Du        
   2914 ****        51.2500  49.7500  49.7500 Du        
   2915 ****        51.2500  49.7500  50.0000 Du        
   2916 ****        51.2500  49.7500  50.2500 Du        
   2917 ****        51.2500  49.7500  50.5000 Du        
   2918 ****        51.2500  49.7500  50.7500 Du        
   2919 ****        51.2500  49.7500  51.0000 Du        
   2920 ****        51.2500  50.0000  49.7500 Du        
   2921 ****        51.2500  50.0000  50.0000 Du        
   2922 ****        51.2500  50.0000  50.2500 Du        
   2923 ****        51.2500  50.0000  50.5000 Du        
   2924 ****        51.2500  50.0000  50.7500 Du        
   2925 ****        51.2500  56.2500  60.7500 Du        
   2926 ****        51.2500  56.2500  61.0000 Du        
   2927 ****        51.2500  56.2500  61.2500 Du        
   2928 ****        51.2500  56.2500  61.5000 Du        
   2929 ****        51.2500  56.2500  61.7500 Du        
   2930 ****        51.2500  56.5000  60.5000 Du        
   2931 ****        51.2500  56.5000  60.7500 Du        
   2932 ****        51.2500  56.5000  61.0000 Du        
   2933 ****        51.2500  56.5000  61.2500 Du        
   2934 ****        51.2500  56.5000  61.5000 Du        
   2935 ****        51.2500  56.5000  61.7500 Du        
   2936 ****        51.2500  56.5000  62.0000 Du        
   2937 ****        51.2500  56.5000  62.2500 Du        
   2938 ****        51.2500  56.5000  62.5000 Du        
   2939 ****        51.2500  56.5000  62.7500 Du        
   2940 ****        51.2500  56.7500  60.7500 Du        
   2941 ****        51.2500  56.7500  61.0000 Du        
   2942 ****        51.2500  56.7500  61.2500 Du        
   2943 ****        51.2500  56.7500  61.5000 Du        
   2944 ****        51.2500  56.7500  61.7500 Du        
   2945 ****        51.2500  56.7500  62.0000 Du        
   2946 ****        51.2500  56.7500  62.2500 Du        
   2947 ****        51.2500  56.7500  62.5000 Du        
   2948 ****        51.2500  56.7500  62.7500 Du        
   2949 ****        51.2500  56.7500  63.0000 Du        
   2950 ****        51.2500  56.7500  63.2500 Du        
   2951 ****        51.2500  57.0000  60.7500 Du        
   2952 ****        51.2500  57.0000  61.0000 Du        
   2953 ****        51.2500  57.0000  61.2500 Du        
   2954 ****        51.2500  57.0000  61.5000 Du        
   2955 ****        51.2500  57.0000  61.7500 Du        
   2956 ****        51.2500  57.0000  62.0000 Du        
   2957 ****        51.2500  57.0000  62.2500 Du        
   2958 ****        51.2500  57.0000  62.5000 Du        
   2959 ****        51.2500  57.0000  62.7500 Du        
   2960 ****        51.2500  57.0000  63.0000 Du        
   2961 ****        51.2500  57.0000  63.2500 Du        
   2962 ****        51.2500  57.0000  63.5000 Du        
   2963 ****        51.2500  57.2500  61.0000 Du        
   2964 ****        51.2500  57.2500  61.2500 Du        
   2965 ****        51.2500  57.2500  61.5000 Du        
   2966 ****        51.2500  57.2500  61.7500 Du        
   2967 ****        51.2500  57.2500  62.0000 Du        
   2968 ****        51.2500  57.2500  62.2500 Du        
   2969 ****        51.2500  57.2500  62.5000 Du        
   2970 ****        51.2500  57.2500  62.7500 Du        
   2971 ****        51.2500  57.2500  63.0000 Du        
   2972 ****        51.2500  57.2500  63.2500 Du        
   2973 ****        51.2500  57.2500  63.5000 Du        
   2974 ****        51.2500  57.2500  63.7500 Du        
   2975 ****        51.2500  57.5000  61.2500 Du        
   2976 ****        51.2500  57.5000  61.5000 Du        
   2977 ****        51.2500  57.5000  61.7500 Du        
   2978 ****        51.2500  57.5000  62.0000 Du        
   2979 ****        51.2500  57.5000  62.2500 Du        
   2980 ****        51.2500  57.5000  62.5000 Du        
   2981 ****        51.2500  57.5000  62.7500 Du        
   2982 ****        51.2500  57.5000  63.0000 Du        
   2983 ****        51.2500  57.5000  63.2500 Du        
   2984 ****        51.2500  57.5000  63.5000 Du        
   2985 ****        51.2500  57.5000  63.7500 Du        
   2986 ****        51.2500  57.7500  61.5000 Du        
   2987 ****        51.2500  57.7500  61.7500 Du        
   2988 ****        51.2500  57.7500  62.0000 Du        
   2989 ****        51.2500  57.7500  62.2500 Du        
   2990 ****        51.2500  57.7500  62.5000 Du        
   2991 ****        51.2500  57.7500  62.7500 Du        
   2992 ****        51.2500  57.7500  63.0000 Du        
   2993 ****        51.2500  57.7500  63.2500 Du        
   2994 ****        51.2500  57.7500  63.5000 Du        
   2995 ****        51.2500  57.7500  63.7500 Du        
   2996 ****        51.2500  64.7500  49.5000 Du        
   2997 ****        51.2500  64.7500  49.7500 Du        
   2998 ****        51.2500  64.7500  50.0000 Du        
   2999 ****        51.2500  64.7500  50.2500 Du        
   3000 ****        51.2500  65.0000  49.5000 Du        
   3001 ****        51.2500  65.0000  49.7500 Du        
   3002 ****        51.2500  65.0000  50.0000 Du        
   3003 ****        51.2500  65.0000  50.2500 Du        
   3004 ****        51.2500  65.0000  50.5000 Du        
   3005 ****        51.2500  65.2500  49.5000 Du        
   3006 ****        51.2500  65.2500  49.7500 Du        
   3007 ****        51.2500  65.2500  50.0000 Du        
   3008 ****        51.2500  65.2500  50.2500 Du        
   3009 ****        51.2500  65.2500  50.5000 Du        
   3010 ****        51.2500  65.5000  49.5000 Du        
   3011 ****        51.2500  65.5000  49.7500 Du        
   3012 ****        51.2500  65.5000  50.0000 Du        
   3013 ****        51.2500  65.5000  50.2500 Du        
   3014 ****        51.2500  65.5000  50.5000 Du        
   3015 ****        51.2500  65.7500  49.5000 Du        
   3016 ****        51.2500  65.7500  49.7500 Du        
   3017 ****        51.2500  65.7500  50.0000 Du        
   3018 ****        51.2500  65.7500  50.2500 Du        
   3019 ****        51.2500  66.0000  49.5000 Du        
   3020 ****        51.2500  66.0000  49.7500 Du        
   3021 ****        51.2500  66.0000  50.0000 Du        
   3022 ****        51.2500  66.2500  49.5000 Du        
   3023 ****        51.2500  66.2500  49.7500 Du        
   3024 ****        51.2500  74.0000  48.0000 Du        
   3025 ****        51.2500  74.2500  47.7500 Du        
   3026 ****        51.2500  74.2500  48.0000 Du        
   3027 ****        51.2500  74.5000  47.7500 Du        
   3028 ****        51.2500  74.5000  48.0000 Du        
   3029 ****        51.2500  74.5000  48.2500 Du        
   3030 ****        51.2500  74.7500  47.7500 Du        
   3031 ****        51.2500  74.7500  48.0000 Du        
   3032 ****        51.2500  74.7500  48.2500 Du        
   3033 ****        51.2500  74.7500  48.5000 Du        
   3034 ****        51.2500  75.0000  47.7500 Du        
   3035 ****        51.2500  75.0000  48.0000 Du        
   3036 ****        51.2500  75.0000  48.2500 Du        
   3037 ****        51.2500  75.0000  48.5000 Du        
   3038 ****        51.2500  75.2500  48.0000 Du        
   3039 ****        51.2500  75.2500  48.2500 Du        
   3040 ****        51.2500  75.2500  48.5000 Du        
   3041 ****        51.2500  75.5000  48.0000 Du        
   3042 ****        51.2500  75.5000  48.2500 Du        
   3043 ****        51.5000  47.2500  47.5000 Du        
   3044 ****        51.5000  47.2500  47.7500 Du        
   3045 ****        51.5000  47.5000  47.0000 Du        
   3046 ****        51.5000  47.5000  47.2500 Du        
   3047 ****        51.5000  47.5000  47.5000 Du        
   3048 ****        51.5000  47.5000  47.7500 Du        
   3049 ****        51.5000  47.5000  48.0000 Du        
   3050 ****        51.5000  47.5000  48.2500 Du        
   3051 ****        51.5000  47.7500  46.7500 Du        
   3052 ****        51.5000  47.7500  47.0000 Du        
   3053 ****        51.5000  47.7500  47.2500 Du        
   3054 ****        51.5000  47.7500  47.5000 Du        
   3055 ****        51.5000  47.7500  47.7500 Du        
   3056 ****        51.5000  47.7500  48.0000 Du        
   3057 ****        51.5000  47.7500  48.2500 Du        
   3058 ****        51.5000  47.7500  48.5000 Du        
   3059 ****        51.5000  47.7500  48.7500 Du        
   3060 ****        51.5000  47.7500  49.0000 Du        
   3061 ****        51.5000  47.7500  49.2500 Du        
   3062 ****        51.5000  47.7500  49.5000 Du        
   3063 ****        51.5000  47.7500  49.7500 Du        
   3064 ****        51.5000  47.7500  50.0000 Du        
   3065 ****        51.5000  47.7500  50.2500 Du        
   3066 ****        51.5000  47.7500  50.5000 Du        
   3067 ****        51.5000  48.0000  48.5000 Du        
   3068 ****        51.5000  48.0000  48.7500 Du        
   3069 ****        51.5000  48.0000  49.0000 Du        
   3070 ****        51.5000  48.0000  49.2500 Du        
   3071 ****        51.5000  48.0000  49.5000 Du        
   3072 ****        51.5000  48.0000  49.7500 Du        
   3073 ****        51.5000  48.0000  50.0000 Du        
   3074 ****        51.5000  48.0000  50.2500 Du        
   3075 ****        51.5000  48.0000  50.5000 Du        
   3076 ****        51.5000  48.0000  50.7500 Du        
   3077 ****        51.5000  48.0000  51.0000 Du        
   3078 ****        51.5000  48.2500  48.7500 Du        
   3079 ****        51.5000  48.2500  49.0000 Du        
   3080 ****        51.5000  48.2500  49.2500 Du        
   3081 ****        51.5000  48.2500  49.5000 Du        
   3082 ****        51.5000  48.2500  49.7500 Du        
   3083 ****        51.5000  48.2500  50.0000 Du        
   3084 ****        51.5000  48.2500  50.2500 Du        
   3085 ****        51.5000  48.2500  50.5000 Du        
   3086 ****        51.5000  48.2500  50.7500 Du        
   3087 ****        51.5000  48.2500  51.0000 Du        
   3088 ****        51.5000  48.5000  49.0000 Du        
   3089 ****        51.5000  48.5000  49.2500 Du        
   3090 ****        51.5000  48.5000  49.5000 Du        
   3091 ****        51.5000  48.5000  49.7500 Du        
   3092 ****        51.5000  48.5000  50.0000 Du        
   3093 ****        51.5000  48.5000  50.2500 Du        
   3094 ****        51.5000  48.5000  50.5000 Du        
   3095 ****        51.5000  48.5000  50.7500 Du        
   3096 ****        51.5000  48.5000  51.0000 Du        
   3097 ****        51.5000  48.7500  49.2500 Du        
   3098 ****        51.5000  48.7500  49.5000 Du        
   3099 ****        51.5000  48.7500  49.7500 Du        
   3100 ****        51.5000  48.7500  50.0000 Du        
   3101 ****        51.5000  48.7500  50.2500 Du        
   3102 ****        51.5000  48.7500  50.5000 Du        
   3103 ****        51.5000  48.7500  50.7500 Du        
   3104 ****        51.5000  48.7500  51.0000 Du        
   3105 ****        51.5000  49.0000  49.2500 Du        
   3106 ****        51.5000  49.0000  49.5000 Du        
   3107 ****        51.5000  49.0000  49.7500 Du        
   3108 ****        51.5000  49.0000  50.0000 Du        
   3109 ****        51.5000  49.0000  50.2500 Du        
   3110 ****        51.5000  49.0000  50.5000 Du        
   3111 ****        51.5000  49.0000  50.7500 Du        
   3112 ****        51.5000  49.0000  51.0000 Du        
   3113 ****        51.5000  49.2500  49.5000 Du        
   3114 ****        51.5000  49.2500  49.7500 Du        
   3115 ****        51.5000  49.2500  50.0000 Du        
   3116 ****        51.5000  49.2500  50.2500 Du        
   3117 ****        51.5000  49.2500  50.5000 Du        
   3118 ****        51.5000  49.2500  50.7500 Du        
   3119 ****        51.5000  49.2500  51.0000 Du        
   3120 ****        51.5000  49.5000  49.7500 Du        
   3121 ****        51.5000  49.5000  50.0000 Du        
   3122 ****        51.5000  49.5000  50.2500 Du        
   3123 ****        51.5000  49.5000  50.5000 Du        
   3124 ****        51.5000  49.5000  50.7500 Du        
   3125 ****        51.5000  49.5000  51.0000 Du        
   3126 ****        51.5000  49.7500  49.7500 Du        
   3127 ****        51.5000  49.7500  50.0000 Du        
   3128 ****        51.5000  49.7500  50.2500 Du        
   3129 ****        51.5000  49.7500  50.5000 Du        
   3130 ****        51.5000  49.7500  50.7500 Du        
   3131 ****        51.5000  50.0000  50.0000 Du        
   3132 ****        51.5000  50.0000  50.2500 Du        
   3133 ****        51.5000  50.0000  50.5000 Du        
   3134 ****        51.5000  50.0000  50.7500 Du        
   3135 ****        51.5000  56.2500  60.2500 Du        
   3136 ****        51.5000  56.2500  60.5000 Du        
   3137 ****        51.5000  56.2500  60.7500 Du        
   3138 ****        51.5000  56.2500  61.0000 Du        
   3139 ****        51.5000  56.2500  61.2500 Du        
   3140 ****        51.5000  56.2500  61.5000 Du        
   3141 ****        51.5000  56.2500  61.7500 Du        
   3142 ****        51.5000  56.2500  62.0000 Du        
   3143 ****        51.5000  56.5000  60.5000 Du        
   3144 ****        51.5000  56.5000  60.7500 Du        
   3145 ****        51.5000  56.5000  61.0000 Du        
   3146 ****        51.5000  56.5000  61.2500 Du        
   3147 ****        51.5000  56.5000  61.5000 Du        
   3148 ****        51.5000  56.5000  61.7500 Du        
   3149 ****        51.5000  56.5000  62.0000 Du        
   3150 ****        51.5000  56.5000  62.2500 Du        
   3151 ****        51.5000  56.5000  62.5000 Du        
   3152 ****        51.5000  56.5000  62.7500 Du        
   3153 ****        51.5000  56.7500  60.5000 Du        
   3154 ****        51.5000  56.7500  60.7500 Du        
   3155 ****        51.5000  56.7500  61.0000 Du        
   3156 ****        51.5000  56.7500  61.2500 Du        
   3157 ****        51.5000  56.7500  61.5000 Du        
   3158 ****        51.5000  56.7500  61.7500 Du        
   3159 ****        51.5000  56.7500  62.0000 Du        
   3160 ****        51.5000  56.7500  62.2500 Du        
   3161 ****        51.5000  56.7500  62.5000 Du        
   3162 ****        51.5000  56.7500  62.7500 Du        
   3163 ****        51.5000  56.7500  63.0000 Du        
   3164 ****        51.5000  56.7500  63.2500 Du        
   3165 ****        51.5000  57.0000  60.7500 Du        
   3166 ****        51.5000  57.0000  61.0000 Du        
   3167 ****        51.5000  57.0000  61.2500 Du        
   3168 ****        51.5000  57.0000  61.5000 Du        
   3169 ****        51.5000  57.0000  61.7500 Du        
   3170 ****        51.5000  57.0000  62.0000 Du        
   3171 ****        51.5000  57.0000  62.2500 Du        
   3172 ****        51.5000  57.0000  62.5000 Du        
   3173 ****        51.5000  57.0000  62.7500 Du        
   3174 ****        51.5000  57.0000  63.0000 Du        
   3175 ****        51.5000  57.0000  63.2500 Du        
   3176 ****        51.5000  57.0000  63.5000 Du        
   3177 ****        51.5000  57.0000  63.7500 Du        
   3178 ****        51.5000  57.2500  61.0000 Du        
   3179 ****        51.5000  57.2500  61.2500 Du        
   3180 ****        51.5000  57.2500  61.5000 Du        
   3181 ****        51.5000  57.2500  61.7500 Du        
   3182 ****        51.5000  57.2500  62.0000 Du        
   3183 ****        51.5000  57.2500  62.2500 Du        
   3184 ****        51.5000  57.2500  62.5000 Du        
   3185 ****        51.5000  57.2500  62.7500 Du        
   3186 ****        51.5000  57.2500  63.0000 Du        
   3187 ****        51.5000  57.2500  63.2500 Du        
   3188 ****        51.5000  57.2500  63.5000 Du        
   3189 ****        51.5000  57.2500  63.7500 Du        
   3190 ****        51.5000  57.5000  61.2500 Du        
   3191 ****        51.5000  57.5000  61.5000 Du        
   3192 ****        51.5000  57.5000  61.7500 Du        
   3193 ****        51.5000  57.5000  62.0000 Du        
   3194 ****        51.5000  57.5000  62.2500 Du        
   3195 ****        51.5000  57.5000  62.5000 Du        
   3196 ****        51.5000  57.5000  62.7500 Du        
   3197 ****        51.5000  57.5000  63.0000 Du        
   3198 ****        51.5000  57.5000  63.2500 Du        
   3199 ****        51.5000  57.5000  63.5000 Du        
   3200 ****        51.5000  57.5000  63.7500 Du        
   3201 ****        51.5000  57.7500  61.7500 Du        
   3202 ****        51.5000  57.7500  62.0000 Du        
   3203 ****        51.5000  57.7500  62.2500 Du        
   3204 ****        51.5000  57.7500  62.5000 Du        
   3205 ****        51.5000  57.7500  62.7500 Du        
   3206 ****        51.5000  57.7500  63.0000 Du        
   3207 ****        51.5000  57.7500  63.2500 Du        
   3208 ****        51.5000  57.7500  63.5000 Du        
   3209 ****        51.5000  57.7500  63.7500 Du        
   3210 ****        51.5000  57.7500  64.0000 Du        
   3211 ****        51.5000  58.0000  63.0000 Du        
   3212 ****        51.5000  58.0000  63.2500 Du        
   3213 ****        51.5000  58.0000  63.5000 Du        
   3214 ****        51.5000  58.0000  63.7500 Du        
   3215 ****        51.5000  58.0000  64.0000 Du        
   3216 ****        51.5000  58.2500  63.7500 Du        
   3217 ****        51.5000  64.7500  49.5000 Du        
   3218 ****        51.5000  64.7500  49.7500 Du        
   3219 ****        51.5000  64.7500  50.0000 Du        
   3220 ****        51.5000  65.0000  49.5000 Du        
   3221 ****        51.5000  65.0000  49.7500 Du        
   3222 ****        51.5000  65.0000  50.0000 Du        
   3223 ****        51.5000  65.0000  50.2500 Du        
   3224 ****        51.5000  65.2500  49.5000 Du        
   3225 ****        51.5000  65.2500  49.7500 Du        
   3226 ****        51.5000  65.2500  50.0000 Du        
   3227 ****        51.5000  65.2500  50.2500 Du        
   3228 ****        51.5000  65.2500  50.5000 Du        
   3229 ****        51.5000  65.5000  49.2500 Du        
   3230 ****        51.5000  65.5000  49.5000 Du        
   3231 ****        51.5000  65.5000  49.7500 Du        
   3232 ****        51.5000  65.5000  50.0000 Du        
   3233 ****        51.5000  65.5000  50.2500 Du        
   3234 ****        51.5000  65.5000  50.5000 Du        
   3235 ****        51.5000  65.7500  49.2500 Du        
   3236 ****        51.5000  65.7500  49.5000 Du        
   3237 ****        51.5000  65.7500  49.7500 Du        
   3238 ****        51.5000  65.7500  50.0000 Du        
   3239 ****        51.5000  65.7500  50.2500 Du        
   3240 ****        51.5000  65.7500  50.5000 Du        
   3241 ****        51.5000  66.0000  49.2500 Du        
   3242 ****        51.5000  66.0000  49.5000 Du        
   3243 ****        51.5000  66.0000  49.7500 Du        
   3244 ****        51.5000  66.0000  50.0000 Du        
   3245 ****        51.5000  66.0000  50.2500 Du        
   3246 ****        51.5000  66.0000  50.5000 Du        
   3247 ****        51.5000  66.2500  49.5000 Du        
   3248 ****        51.5000  66.2500  49.7500 Du        
   3249 ****        51.5000  66.2500  50.0000 Du        
   3250 ****        51.5000  66.2500  50.2500 Du        
   3251 ****        51.5000  74.2500  48.0000 Du        
   3252 ****        51.5000  74.5000  48.0000 Du        
   3253 ****        51.5000  74.7500  47.7500 Du        
   3254 ****        51.5000  74.7500  48.0000 Du        
   3255 ****        51.5000  74.7500  48.2500 Du        
   3256 ****        51.5000  75.0000  47.7500 Du        
   3257 ****        51.5000  75.0000  48.0000 Du        
   3258 ****        51.5000  75.0000  48.2500 Du        
   3259 ****        51.5000  75.0000  48.5000 Du        
   3260 ****        51.5000  75.2500  48.0000 Du        
   3261 ****        51.5000  75.2500  48.2500 Du        
   3262 ****        51.5000  75.2500  48.5000 Du        
   3263 ****        51.5000  75.5000  48.0000 Du        
   3264 ****        51.7500  47.2500  47.5000 Du        
   3265 ****        51.7500  47.5000  47.0000 Du        
   3266 ****        51.7500  47.5000  47.2500 Du        
   3267 ****        51.7500  47.5000  47.5000 Du        
   3268 ****        51.7500  47.5000  47.7500 Du        
   3269 ****        51.7500  47.5000  48.0000 Du        
   3270 ****        51.7500  47.7500  46.7500 Du        
   3271 ****        51.7500  47.7500  47.0000 Du        
   3272 ****        51.7500  47.7500  47.2500 Du        
   3273 ****        51.7500  47.7500  47.5000 Du        
   3274 ****        51.7500  47.7500  47.7500 Du        
   3275 ****        51.7500  47.7500  48.0000 Du        
   3276 ****        51.7500  47.7500  48.2500 Du        
   3277 ****        51.7500  47.7500  48.5000 Du        
   3278 ****        51.7500  47.7500  48.7500 Du        
   3279 ****        51.7500  47.7500  49.0000 Du        
   3280 ****        51.7500  47.7500  49.2500 Du        
   3281 ****        51.7500  47.7500  49.5000 Du        
   3282 ****        51.7500  48.0000  48.5000 Du        
   3283 ****        51.7500  48.0000  48.7500 Du        
   3284 ****        51.7500  48.0000  49.0000 Du        
   3285 ****        51.7500  48.0000  49.2500 Du        
   3286 ****        51.7500  48.0000  49.5000 Du        
   3287 ****        51.7500  48.0000  49.7500 Du        
   3288 ****        51.7500  48.0000  50.0000 Du        
   3289 ****        51.7500  48.0000  50.2500 Du        
   3290 ****        51.7500  48.0000  50.5000 Du        
   3291 ****        51.7500  48.0000  50.7500 Du        
   3292 ****        51.7500  48.2500  49.0000 Du        
   3293 ****        51.7500  48.2500  49.2500 Du        
   3294 ****        51.7500  48.2500  49.5000 Du        
   3295 ****        51.7500  48.2500  49.7500 Du        
   3296 ****        51.7500  48.2500  50.0000 Du        
   3297 ****        51.7500  48.2500  50.2500 Du        
   3298 ****        51.7500  48.2500  50.5000 Du        
   3299 ****        51.7500  48.2500  50.7500 Du        
   3300 ****        51.7500  48.2500  51.0000 Du        
   3301 ****        51.7500  48.5000  49.2500 Du        
   3302 ****        51.7500  48.5000  49.5000 Du        
   3303 ****        51.7500  48.5000  49.7500 Du        
   3304 ****        51.7500  48.5000  50.0000 Du        
   3305 ****        51.7500  48.5000  50.2500 Du        
   3306 ****        51.7500  48.5000  50.5000 Du        
   3307 ****        51.7500  48.5000  50.7500 Du        
   3308 ****        51.7500  48.5000  51.0000 Du        
   3309 ****        51.7500  48.7500  49.2500 Du        
   3310 ****        51.7500  48.7500  49.5000 Du        
   3311 ****        51.7500  48.7500  49.7500 Du        
   3312 ****        51.7500  48.7500  50.0000 Du        
   3313 ****        51.7500  48.7500  50.2500 Du        
   3314 ****        51.7500  48.7500  50.5000 Du        
   3315 ****        51.7500  48.7500  50.7500 Du        
   3316 ****        51.7500  48.7500  51.0000 Du        
   3317 ****        51.7500  49.0000  49.5000 Du        
   3318 ****        51.7500  49.0000  49.7500 Du        
   3319 ****        51.7500  49.0000  50.0000 Du        
   3320 ****        51.7500  49.0000  50.2500 Du        
   3321 ****        51.7500  49.0000  50.5000 Du        
   3322 ****        51.7500  49.0000  50.7500 Du        
   3323 ****        51.7500  49.0000  51.0000 Du        
   3324 ****        51.7500  49.2500  49.7500 Du        
   3325 ****        51.7500  49.2500  50.0000 Du        
   3326 ****        51.7500  49.2500  50.2500 Du        
   3327 ****        51.7500  49.2500  50.5000 Du        
   3328 ****        51.7500  49.2500  50.7500 Du        
   3329 ****        51.7500  49.2500  51.0000 Du        
   3330 ****        51.7500  49.5000  49.7500 Du        
   3331 ****        51.7500  49.5000  50.0000 Du        
   3332 ****        51.7500  49.5000  50.2500 Du        
   3333 ****        51.7500  49.5000  50.5000 Du        
   3334 ****        51.7500  49.5000  50.7500 Du        
   3335 ****        51.7500  49.5000  51.0000 Du        
   3336 ****        51.7500  49.7500  50.0000 Du        
   3337 ****        51.7500  49.7500  50.2500 Du        
   3338 ****        51.7500  49.7500  50.5000 Du        
   3339 ****        51.7500  49.7500  50.7500 Du        
   3340 ****        51.7500  56.0000  60.2500 Du        
   3341 ****        51.7500  56.0000  60.5000 Du        
   3342 ****        51.7500  56.0000  60.7500 Du        
   3343 ****        51.7500  56.0000  61.0000 Du        
   3344 ****        51.7500  56.0000  61.2500 Du        
   3345 ****        51.7500  56.2500  60.0000 Du        
   3346 ****        51.7500  56.2500  60.2500 Du        
   3347 ****        51.7500  56.2500  60.5000 Du        
   3348 ****        51.7500  56.2500  60.7500 Du        
   3349 ****        51.7500  56.2500  61.0000 Du        
   3350 ****        51.7500  56.2500  61.2500 Du        
   3351 ****        51.7500  56.2500  61.5000 Du        
   3352 ****        51.7500  56.2500  61.7500 Du        
   3353 ****        51.7500  56.2500  62.0000 Du        
   3354 ****        51.7500  56.5000  60.2500 Du        
   3355 ****        51.7500  56.5000  60.5000 Du        
   3356 ****        51.7500  56.5000  60.7500 Du        
   3357 ****        51.7500  56.5000  61.0000 Du        
   3358 ****        51.7500  56.5000  61.2500 Du        
   3359 ****        51.7500  56.5000  61.5000 Du        
   3360 ****        51.7500  56.5000  61.7500 Du        
   3361 ****        51.7500  56.5000  62.0000 Du        
   3362 ****        51.7500  56.5000  62.2500 Du        
   3363 ****        51.7500  56.5000  62.5000 Du        
   3364 ****        51.7500  56.5000  62.7500 Du        
   3365 ****        51.7500  56.7500  60.5000 Du        
   3366 ****        51.7500  56.7500  60.7500 Du        
   3367 ****        51.7500  56.7500  61.0000 Du        
   3368 ****        51.7500  56.7500  61.2500 Du        
   3369 ****        51.7500  56.7500  61.5000 Du        
   3370 ****        51.7500  56.7500  61.7500 Du        
   3371 ****        51.7500  56.7500  62.0000 Du        
   3372 ****        51.7500  56.7500  62.2500 Du        
   3373 ****        51.7500  56.7500  62.5000 Du        
   3374 ****        51.7500  56.7500  62.7500 Du        
   3375 ****        51.7500  56.7500  63.0000 Du        
   3376 ****        51.7500  56.7500  63.2500 Du        
   3377 ****        51.7500  57.0000  60.7500 Du        
   3378 ****        51.7500  57.0000  61.0000 Du        
   3379 ****        51.7500  57.0000  61.2500 Du        
   3380 ****        51.7500  57.0000  61.5000 Du        
   3381 ****        51.7500  57.0000  61.7500 Du        
   3382 ****        51.7500  57.0000  62.0000 Du        
   3383 ****        51.7500  57.0000  62.2500 Du        
   3384 ****        51.7500  57.0000  62.5000 Du        
   3385 ****        51.7500  57.0000  62.7500 Du        
   3386 ****        51.7500  57.0000  63.0000 Du        
   3387 ****        51.7500  57.0000  63.2500 Du        
   3388 ****        51.7500  57.0000  63.5000 Du        
   3389 ****        51.7500  57.2500  61.0000 Du        
   3390 ****        51.7500  57.2500  61.2500 Du        
   3391 ****        51.7500  57.2500  61.5000 Du        
   3392 ****        51.7500  57.2500  61.7500 Du        
   3393 ****        51.7500  57.2500  62.0000 Du        
   3394 ****        51.7500  57.2500  62.2500 Du        
   3395 ****        51.7500  57.2500  62.5000 Du        
   3396 ****        51.7500  57.2500  62.7500 Du        
   3397 ****        51.7500  57.2500  63.0000 Du        
   3398 ****        51.7500  57.2500  63.2500 Du        
   3399 ****        51.7500  57.2500  63.5000 Du        
   3400 ****        51.7500  57.2500  63.7500 Du        
   3401 ****        51.7500  57.5000  61.2500 Du        
   3402 ****        51.7500  57.5000  61.5000 Du        
   3403 ****        51.7500  57.5000  61.7500 Du        
   3404 ****        51.7500  57.5000  62.0000 Du        
   3405 ****        51.7500  57.5000  62.2500 Du        
   3406 ****        51.7500  57.5000  62.5000 Du        
   3407 ****        51.7500  57.5000  62.7500 Du        
   3408 ****        51.7500  57.5000  63.0000 Du        
   3409 ****        51.7500  57.5000  63.2500 Du        
   3410 ****        51.7500  57.5000  63.5000 Du        
   3411 ****        51.7500  57.5000  63.7500 Du        
   3412 ****        51.7500  57.5000  64.0000 Du        
   3413 ****        51.7500  57.7500  61.5000 Du        
   3414 ****        51.7500  57.7500  61.7500 Du        
   3415 ****        51.7500  57.7500  62.0000 Du        
   3416 ****        51.7500  57.7500  62.2500 Du        
   3417 ****        51.7500  57.7500  62.5000 Du        
   3418 ****        51.7500  57.7500  62.7500 Du        
   3419 ****        51.7500  57.7500  63.0000 Du        
   3420 ****        51.7500  57.7500  63.2500 Du        
   3421 ****        51.7500  57.7500  63.5000 Du        
   3422 ****        51.7500  57.7500  63.7500 Du        
   3423 ****        51.7500  57.7500  64.0000 Du        
   3424 ****        51.7500  58.0000  62.7500 Du        
   3425 ****        51.7500  58.0000  63.0000 Du        
   3426 ****        51.7500  58.0000  63.2500 Du        
   3427 ****        51.7500  58.0000  63.5000 Du        
   3428 ****        51.7500  58.0000  63.7500 Du        
   3429 ****        51.7500  58.0000  64.0000 Du        
   3430 ****        51.7500  58.0000  64.2500 Du        
   3431 ****        51.7500  58.2500  63.2500 Du        
   3432 ****        51.7500  58.2500  63.5000 Du        
   3433 ****        51.7500  58.2500  63.7500 Du        
   3434 ****        51.7500  58.2500  64.0000 Du        
   3435 ****        51.7500  58.2500  64.2500 Du        
   3436 ****        51.7500  58.5000  63.7500 Du        
   3437 ****        51.7500  58.5000  64.0000 Du        
   3438 ****        51.7500  58.5000  64.2500 Du        
   3439 ****        51.7500  65.0000  49.5000 Du        
   3440 ****        51.7500  65.0000  49.7500 Du        
   3441 ****        51.7500  65.0000  50.0000 Du        
   3442 ****        51.7500  65.2500  49.5000 Du        
   3443 ****        51.7500  65.2500  49.7500 Du        
   3444 ****        51.7500  65.2500  50.0000 Du        
   3445 ****        51.7500  65.2500  50.2500 Du        
   3446 ****        51.7500  65.5000  49.2500 Du        
   3447 ****        51.7500  65.5000  49.5000 Du        
   3448 ****        51.7500  65.5000  49.7500 Du        
   3449 ****        51.7500  65.5000  50.0000 Du        
   3450 ****        51.7500  65.5000  50.2500 Du        
   3451 ****        51.7500  65.5000  50.5000 Du        
   3452 ****        51.7500  65.7500  49.2500 Du        
   3453 ****        51.7500  65.7500  49.5000 Du        
   3454 ****        51.7500  65.7500  49.7500 Du        
   3455 ****        51.7500  65.7500  50.0000 Du        
   3456 ****        51.7500  65.7500  50.2500 Du        
   3457 ****        51.7500  65.7500  50.5000 Du        
   3458 ****        51.7500  66.0000  49.2500 Du        
   3459 ****        51.7500  66.0000  49.5000 Du        
   3460 ****        51.7500  66.0000  49.7500 Du        
   3461 ****        51.7500  66.0000  50.0000 Du        
   3462 ****        51.7500  66.0000  50.2500 Du        
   3463 ****        51.7500  66.0000  50.5000 Du        
   3464 ****        51.7500  66.2500  49.5000 Du        
   3465 ****        51.7500  66.2500  49.7500 Du        
   3466 ****        51.7500  66.2500  50.0000 Du        
   3467 ****        51.7500  66.2500  50.2500 Du        
   3468 ****        51.7500  66.2500  50.5000 Du        
   3469 ****        51.7500  74.7500  48.0000 Du        
   3470 ****        51.7500  75.0000  47.7500 Du        
   3471 ****        51.7500  75.0000  48.0000 Du        
   3472 ****        51.7500  75.2500  48.0000 Du        
   3473 ****        52.0000  45.0000  58.0000 Du        
   3474 ****        52.0000  45.2500  57.7500 Du        
   3475 ****        52.0000  45.2500  58.0000 Du        
   3476 ****        52.0000  45.2500  58.2500 Du        
   3477 ****        52.0000  45.5000  57.7500 Du        
   3478 ****        52.0000  45.5000  58.0000 Du        
   3479 ****        52.0000  47.2500  47.2500 Du        
   3480 ****        52.0000  47.5000  47.0000 Du        
   3481 ****        52.0000  47.5000  47.2500 Du        
   3482 ****        52.0000  47.5000  47.5000 Du        
   3483 ****        52.0000  47.5000  47.7500 Du        
   3484 ****        52.0000  47.7500  46.7500 Du        
   3485 ****        52.0000  47.7500  47.0000 Du        
   3486 ****        52.0000  47.7500  47.2500 Du        
   3487 ****        52.0000  47.7500  47.5000 Du        
   3488 ****        52.0000  47.7500  47.7500 Du        
   3489 ****        52.0000  48.0000  49.0000 Du        
   3490 ****        52.0000  48.0000  49.2500 Du        
   3491 ****        52.0000  48.0000  49.5000 Du        
   3492 ****        52.0000  48.0000  49.7500 Du        
   3493 ****        52.0000  48.0000  50.0000 Du        
   3494 ****        52.0000  48.2500  49.2500 Du        
   3495 ****        52.0000  48.2500  49.5000 Du        
   3496 ****        52.0000  48.2500  49.7500 Du        
   3497 ****        52.0000  48.2500  50.0000 Du        
   3498 ****        52.0000  48.2500  50.2500 Du        
   3499 ****        52.0000  48.2500  50.5000 Du        
   3500 ****        52.0000  48.2500  50.7500 Du        
   3501 ****        52.0000  48.5000  49.5000 Du        
   3502 ****        52.0000  48.5000  49.7500 Du        
   3503 ****        52.0000  48.5000  50.0000 Du        
   3504 ****        52.0000  48.5000  50.2500 Du        
   3505 ****        52.0000  48.5000  50.5000 Du        
   3506 ****        52.0000  48.5000  50.7500 Du        
   3507 ****        52.0000  48.5000  51.0000 Du        
   3508 ****        52.0000  48.7500  49.5000 Du        
   3509 ****        52.0000  48.7500  49.7500 Du        
   3510 ****        52.0000  48.7500  50.0000 Du        
   3511 ****        52.0000  48.7500  50.2500 Du        
   3512 ****        52.0000  48.7500  50.5000 Du        
   3513 ****        52.0000  48.7500  50.7500 Du        
   3514 ****        52.0000  48.7500  51.0000 Du        
   3515 ****        52.0000  49.0000  49.7500 Du        
   3516 ****        52.0000  49.0000  50.0000 Du        
   3517 ****        52.0000  49.0000  50.2500 Du        
   3518 ****        52.0000  49.0000  50.5000 Du        
   3519 ****        52.0000  49.0000  50.7500 Du        
   3520 ****        52.0000  49.0000  51.0000 Du        
   3521 ****        52.0000  49.2500  50.0000 Du        
   3522 ****        52.0000  49.2500  50.2500 Du        
   3523 ****        52.0000  49.2500  50.5000 Du        
   3524 ****        52.0000  49.2500  50.7500 Du        
   3525 ****        52.0000  49.2500  51.0000 Du        
   3526 ****        52.0000  49.5000  50.0000 Du        
   3527 ****        52.0000  49.5000  50.2500 Du        
   3528 ****        52.0000  49.5000  50.5000 Du        
   3529 ****        52.0000  49.5000  50.7500 Du        
   3530 ****        52.0000  49.7500  50.2500 Du        
   3531 ****        52.0000  49.7500  50.5000 Du        
   3532 ****        52.0000  49.7500  50.7500 Du        
   3533 ****        52.0000  55.7500  60.7500 Du        
   3534 ****        52.0000  56.0000  60.0000 Du        
   3535 ****        52.0000  56.0000  60.2500 Du        
   3536 ****        52.0000  56.0000  60.5000 Du        
   3537 ****        52.0000  56.0000  60.7500 Du        
   3538 ****        52.0000  56.0000  61.0000 Du        
   3539 ****        52.0000  56.0000  61.2500 Du        
   3540 ****        52.0000  56.0000  61.5000 Du        
   3541 ****        52.0000  56.0000  61.7500 Du        
   3542 ****        52.0000  56.2500  60.0000 Du        
   3543 ****        52.0000  56.2500  60.2500 Du        
   3544 ****        52.0000  56.2500  60.5000 Du        
   3545 ****        52.0000  56.2500  60.7500 Du        
   3546 ****        52.0000  56.2500  61.0000 Du        
   3547 ****        52.0000  56.2500  61.2500 Du        
   3548 ****        52.0000  56.2500  61.5000 Du        
   3549 ****        52.0000  56.2500  61.7500 Du        
   3550 ****        52.0000  56.2500  62.0000 Du        
   3551 ****        52.0000  56.2500  62.2500 Du        
   3552 ****        52.0000  56.5000  60.0000 Du        
   3553 ****        52.0000  56.5000  60.2500 Du        
   3554 ****        52.0000  56.5000  60.5000 Du        
   3555 ****        52.0000  56.5000  60.7500 Du        
   3556 ****        52.0000  56.5000  61.0000 Du        
   3557 ****        52.0000  56.5000  61.2500 Du        
   3558 ****        52.0000  56.5000  61.5000 Du        
   3559 ****        52.0000  56.5000  61.7500 Du        
   3560 ****        52.0000  56.5000  62.0000 Du        
   3561 ****        52.0000  56.5000  62.2500 Du        
   3562 ****        52.0000  56.5000  62.5000 Du        
   3563 ****        52.0000  56.5000  62.7500 Du        
   3564 ****        52.0000  56.7500  60.2500 Du        
   3565 ****        52.0000  56.7500  60.5000 Du        
   3566 ****        52.0000  56.7500  60.7500 Du        
   3567 ****        52.0000  56.7500  61.0000 Du        
   3568 ****        52.0000  56.7500  61.2500 Du        
   3569 ****        52.0000  56.7500  61.5000 Du        
   3570 ****        52.0000  56.7500  61.7500 Du        
   3571 ****        52.0000  56.7500  62.0000 Du        
   3572 ****        52.0000  56.7500  62.2500 Du        
   3573 ****        52.0000  56.7500  62.5000 Du        
   3574 ****        52.0000  56.7500  62.7500 Du        
   3575 ****        52.0000  56.7500  63.0000 Du        
   3576 ****        52.0000  57.0000  60.5000 Du        
   3577 ****        52.0000  57.0000  60.7500 Du        
   3578 ****        52.0000  57.0000  61.0000 Du        
   3579 ****        52.0000  57.0000  61.2500 Du        
   3580 ****        52.0000  57.0000  61.5000 Du        
   3581 ****        52.0000  57.0000  61.7500 Du        
   3582 ****        52.0000  57.0000  62.0000 Du        
   3583 ****        52.0000  57.0000  62.2500 Du        
   3584 ****        52.0000  57.0000  62.5000 Du        
   3585 ****        52.0000  57.0000  62.7500 Du        
   3586 ****        52.0000  57.0000  63.0000 Du        
   3587 ****        52.0000  57.0000  63.2500 Du        
   3588 ****        52.0000  57.0000  63.5000 Du        
   3589 ****        52.0000  57.2500  60.7500 Du        
   3590 ****        52.0000  57.2500  61.0000 Du        
   3591 ****        52.0000  57.2500  61.2500 Du        
   3592 ****        52.0000  57.2500  61.5000 Du        
   3593 ****        52.0000  57.2500  61.7500 Du        
   3594 ****        52.0000  57.2500  62.0000 Du        
   3595 ****        52.0000  57.2500  62.2500 Du        
   3596 ****        52.0000  57.2500  62.5000 Du        
   3597 ****        52.0000  57.2500  62.7500 Du        
   3598 ****        52.0000  57.2500  63.0000 Du        
   3599 ****        52.0000  57.2500  63.2500 Du        
   3600 ****        52.0000  57.2500  63.5000 Du        
   3601 ****        52.0000  57.2500  63.7500 Du        
   3602 ****        52.0000  57.2500  64.0000 Du        
   3603 ****        52.0000  57.5000  61.0000 Du        
   3604 ****        52.0000  57.5000  61.2500 Du        
   3605 ****        52.0000  57.5000  61.5000 Du        
   3606 ****        52.0000  57.5000  61.7500 Du        
   3607 ****        52.0000  57.5000  62.0000 Du        
   3608 ****        52.0000  57.5000  62.2500 Du        
   3609 ****        52.0000  57.5000  62.5000 Du        
   3610 ****        52.0000  57.5000  62.7500 Du        
   3611 ****        52.0000  57.5000  63.0000 Du        
   3612 ****        52.0000  57.5000  63.2500 Du        
   3613 ****        52.0000  57.5000  63.5000 Du        
   3614 ****        52.0000  57.5000  63.7500 Du        
   3615 ****        52.0000  57.5000  64.0000 Du        
   3616 ****        52.0000  57.7500  61.5000 Du        
   3617 ****        52.0000  57.7500  61.7500 Du        
   3618 ****        52.0000  57.7500  62.0000 Du        
   3619 ****        52.0000  57.7500  62.2500 Du        
   3620 ****        52.0000  57.7500  62.5000 Du        
   3621 ****        52.0000  57.7500  62.7500 Du        
   3622 ****        52.0000  57.7500  63.0000 Du        
   3623 ****        52.0000  57.7500  63.2500 Du        
   3624 ****        52.0000  57.7500  63.5000 Du        
   3625 ****        52.0000  57.7500  63.7500 Du        
   3626 ****        52.0000  57.7500  64.0000 Du        
   3627 ****        52.0000  57.7500  64.2500 Du        
   3628 ****        52.0000  58.0000  62.7500 Du        
   3629 ****        52.0000  58.0000  63.0000 Du        
   3630 ****        52.0000  58.0000  63.2500 Du        
   3631 ****        52.0000  58.0000  63.5000 Du        
   3632 ****        52.0000  58.0000  63.7500 Du        
   3633 ****        52.0000  58.0000  64.0000 Du        
   3634 ****        52.0000  58.0000  64.2500 Du        
   3635 ****        52.0000  58.2500  63.2500 Du        
   3636 ****        52.0000  58.2500  63.5000 Du        
   3637 ****        52.0000  58.2500  63.7500 Du        
   3638 ****        52.0000  58.2500  64.0000 Du        
   3639 ****        52.0000  58.2500  64.2500 Du        
   3640 ****        52.0000  58.5000  63.5000 Du        
   3641 ****        52.0000  58.5000  63.7500 Du        
   3642 ****        52.0000  58.5000  64.0000 Du        
   3643 ****        52.0000  58.5000  64.2500 Du        
   3644 ****        52.0000  58.7500  64.0000 Du        
   3645 ****        52.0000  58.7500  64.2500 Du        
   3646 ****        52.0000  65.2500  49.5000 Du        
   3647 ****        52.0000  65.2500  49.7500 Du        
   3648 ****        52.0000  65.5000  49.5000 Du        
   3649 ****        52.0000  65.5000  49.7500 Du        
   3650 ****        52.0000  65.5000  50.0000 Du        
   3651 ****        52.0000  65.7500  49.2500 Du        
   3652 ****        52.0000  65.7500  49.5000 Du        
   3653 ****        52.0000  65.7500  49.7500 Du        
   3654 ****        52.0000  65.7500  50.0000 Du        
   3655 ****        52.0000  65.7500  50.2500 Du        
   3656 ****        52.0000  66.0000  49.5000 Du        
   3657 ****        52.0000  66.0000  49.7500 Du        
   3658 ****        52.0000  66.0000  50.0000 Du        
   3659 ****        52.0000  66.0000  50.2500 Du        
   3660 ****        52.0000  66.0000  50.5000 Du        
   3661 ****        52.2500  45.0000  57.7500 Du        
   3662 ****        52.2500  45.0000  58.0000 Du        
   3663 ****        52.2500  45.0000  58.2500 Du        
   3664 ****        52.2500  45.2500  57.5000 Du        
   3665 ****        52.2500  45.2500  57.7500 Du        
   3666 ****        52.2500  45.2500  58.0000 Du        
   3667 ****        52.2500  45.2500  58.2500 Du        
   3668 ****        52.2500  45.5000  57.5000 Du        
   3669 ****        52.2500  45.5000  57.7500 Du        
   3670 ****        52.2500  45.5000  58.0000 Du        
   3671 ****        52.2500  47.5000  47.0000 Du        
   3672 ****        52.2500  48.2500  49.7500 Du        
   3673 ****        52.2500  48.2500  50.0000 Du        
   3674 ****        52.2500  48.2500  50.2500 Du        
   3675 ****        52.2500  48.5000  49.7500 Du        
   3676 ****        52.2500  48.5000  50.0000 Du        
   3677 ****        52.2500  48.5000  50.2500 Du        
   3678 ****        52.2500  48.5000  50.5000 Du        
   3679 ****        52.2500  48.5000  50.7500 Du        
   3680 ****        52.2500  48.7500  49.7500 Du        
   3681 ****        52.2500  48.7500  50.0000 Du        
   3682 ****        52.2500  48.7500  50.2500 Du        
   3683 ****        52.2500  48.7500  50.5000 Du        
   3684 ****        52.2500  48.7500  50.7500 Du        
   3685 ****        52.2500  48.7500  51.0000 Du        
   3686 ****        52.2500  49.0000  50.0000 Du        
   3687 ****        52.2500  49.0000  50.2500 Du        
   3688 ****        52.2500  49.0000  50.5000 Du        
   3689 ****        52.2500  49.0000  50.7500 Du        
   3690 ****        52.2500  49.0000  51.0000 Du        
   3691 ****        52.2500  49.2500  50.0000 Du        
   3692 ****        52.2500  49.2500  50.2500 Du        
   3693 ****        52.2500  49.2500  50.5000 Du        
   3694 ****        52.2500  49.2500  50.7500 Du        
   3695 ****        52.2500  49.5000  50.2500 Du        
   3696 ****        52.2500  49.5000  50.5000 Du        
   3697 ****        52.2500  49.5000  50.7500 Du        
   3698 ****        52.2500  49.7500  50.5000 Du        
   3699 ****        52.2500  55.7500  60.7500 Du        
   3700 ****        52.2500  55.7500  61.0000 Du        
   3701 ****        52.2500  56.0000  60.0000 Du        
   3702 ****        52.2500  56.0000  60.2500 Du        
   3703 ****        52.2500  56.0000  60.5000 Du        
   3704 ****        52.2500  56.0000  60.7500 Du        
   3705 ****        52.2500  56.0000  61.0000 Du        
   3706 ****        52.2500  56.0000  61.2500 Du        
   3707 ****        52.2500  56.0000  61.5000 Du        
   3708 ****        52.2500  56.0000  61.7500 Du        
   3709 ****        52.2500  56.2500  59.7500 Du        
   3710 ****        52.2500  56.2500  60.0000 Du        
   3711 ****        52.2500  56.2500  60.2500 Du        
   3712 ****        52.2500  56.2500  60.5000 Du        
   3713 ****        52.2500  56.2500  60.7500 Du        
   3714 ****        52.2500  56.2500  61.0000 Du        
   3715 ****        52.2500  56.2500  61.2500 Du        
   3716 ****        52.2500  56.2500  61.5000 Du        
   3717 ****        52.2500  56.2500  61.7500 Du        
   3718 ****        52.2500  56.2500  62.0000 Du        
   3719 ****        52.2500  56.2500  62.2500 Du        
   3720 ****        52.2500  56.5000  60.0000 Du        
   3721 ****        52.2500  56.5000  60.2500 Du        
   3722 ****        52.2500  56.5000  60.5000 Du        
   3723 ****        52.2500  56.5000  60.7500 Du        
   3724 ****        52.2500  56.5000  61.0000 Du        
   3725 ****        52.2500  56.5000  61.2500 Du        
   3726 ****        52.2500  56.5000  61.5000 Du        
   3727 ****        52.2500  56.5000  61.7500 Du        
   3728 ****        52.2500  56.5000  62.0000 Du        
   3729 ****        52.2500  56.5000  62.2500 Du        
   3730 ****        52.2500  56.5000  62.5000 Du        
   3731 ****        52.2500  56.7500  60.0000 Du        
   3732 ****        52.2500  56.7500  60.2500 Du        
   3733 ****        52.2500  56.7500  60.5000 Du        
   3734 ****        52.2500  56.7500  60.7500 Du        
   3735 ****        52.2500  56.7500  61.0000 Du        
   3736 ****        52.2500  56.7500  61.2500 Du        
   3737 ****        52.2500  56.7500  61.5000 Du        
   3738 ****        52.2500  56.7500  61.7500 Du        
   3739 ****        52.2500  56.7500  62.0000 Du        
   3740 ****        52.2500  56.7500  62.2500 Du        
   3741 ****        52.2500  56.7500  62.5000 Du        
   3742 ****        52.2500  56.7500  62.7500 Du        
   3743 ****        52.2500  56.7500  63.0000 Du        
   3744 ****        52.2500  57.0000  60.5000 Du        
   3745 ****        52.2500  57.0000  60.7500 Du        
   3746 ****        52.2500  57.0000  61.0000 Du        
   3747 ****        52.2500  57.0000  61.2500 Du        
   3748 ****        52.2500  57.0000  61.5000 Du        
   3749 ****        52.2500  57.0000  61.7500 Du        
   3750 ****        52.2500  57.0000  62.0000 Du        
   3751 ****        52.2500  57.0000  62.2500 Du        
   3752 ****        52.2500  57.0000  62.5000 Du        
   3753 ****        52.2500  57.0000  62.7500 Du        
   3754 ****        52.2500  57.0000  63.0000 Du        
   3755 ****        52.2500  57.0000  63.2500 Du        
   3756 ****        52.2500  57.0000  63.5000 Du        
   3757 ****        52.2500  57.2500  60.7500 Du        
   3758 ****        52.2500  57.2500  61.0000 Du        
   3759 ****        52.2500  57.2500  61.2500 Du        
   3760 ****        52.2500  57.2500  61.5000 Du        
   3761 ****        52.2500  57.2500  61.7500 Du        
   3762 ****        52.2500  57.2500  62.0000 Du        
   3763 ****        52.2500  57.2500  62.2500 Du        
   3764 ****        52.2500  57.2500  62.5000 Du        
   3765 ****        52.2500  57.2500  62.7500 Du        
   3766 ****        52.2500  57.2500  63.0000 Du        
   3767 ****        52.2500  57.2500  63.2500 Du        
   3768 ****        52.2500  57.2500  63.5000 Du        
   3769 ****        52.2500  57.2500  63.7500 Du        
   3770 ****        52.2500  57.2500  64.0000 Du        
   3771 ****        52.2500  57.5000  61.0000 Du        
   3772 ****        52.2500  57.5000  61.2500 Du        
   3773 ****        52.2500  57.5000  61.5000 Du        
   3774 ****        52.2500  57.5000  61.7500 Du        
   3775 ****        52.2500  57.5000  62.0000 Du        
   3776 ****        52.2500  57.5000  62.2500 Du        
   3777 ****        52.2500  57.5000  62.5000 Du        
   3778 ****        52.2500  57.5000  62.7500 Du        
   3779 ****        52.2500  57.5000  63.0000 Du        
   3780 ****        52.2500  57.5000  63.2500 Du        
   3781 ****        52.2500  57.5000  63.5000 Du        
   3782 ****        52.2500  57.5000  63.7500 Du        
   3783 ****        52.2500  57.5000  64.0000 Du        
   3784 ****        52.2500  57.7500  61.2500 Du        
   3785 ****        52.2500  57.7500  61.5000 Du        
   3786 ****        52.2500  57.7500  61.7500 Du        
   3787 ****        52.2500  57.7500  62.0000 Du        
   3788 ****        52.2500  57.7500  62.2500 Du        
   3789 ****        52.2500  57.7500  62.5000 Du        
   3790 ****        52.2500  57.7500  62.7500 Du        
   3791 ****        52.2500  57.7500  63.0000 Du        
   3792 ****        52.2500  57.7500  63.2500 Du        
   3793 ****        52.2500  57.7500  63.5000 Du        
   3794 ****        52.2500  57.7500  63.7500 Du        
   3795 ****        52.2500  57.7500  64.0000 Du        
   3796 ****        52.2500  57.7500  64.2500 Du        
   3797 ****        52.2500  58.0000  62.5000 Du        
   3798 ****        52.2500  58.0000  62.7500 Du        
   3799 ****        52.2500  58.0000  63.0000 Du        
   3800 ****        52.2500  58.0000  63.2500 Du        
   3801 ****        52.2500  58.0000  63.5000 Du        
   3802 ****        52.2500  58.0000  63.7500 Du        
   3803 ****        52.2500  58.0000  64.0000 Du        
   3804 ****        52.2500  58.0000  64.2500 Du        
   3805 ****        52.2500  58.2500  63.0000 Du        
   3806 ****        52.2500  58.2500  63.2500 Du        
   3807 ****        52.2500  58.2500  63.5000 Du        
   3808 ****        52.2500  58.2500  63.7500 Du        
   3809 ****        52.2500  58.2500  64.0000 Du        
   3810 ****        52.2500  58.2500  64.2500 Du        
   3811 ****        52.2500  58.2500  64.5000 Du        
   3812 ****        52.2500  58.5000  63.5000 Du        
   3813 ****        52.2500  58.5000  63.7500 Du        
   3814 ****        52.2500  58.5000  64.0000 Du        
   3815 ****        52.2500  58.5000  64.2500 Du        
   3816 ****        52.2500  58.5000  64.5000 Du        
   3817 ****        52.2500  58.7500  63.7500 Du        
   3818 ****        52.2500  58.7500  64.0000 Du        
   3819 ****        52.2500  58.7500  64.2500 Du        
   3820 ****        52.2500  58.7500  64.5000 Du        
   3821 ****        52.2500  59.0000  64.0000 Du        
   3822 ****        52.2500  59.0000  64.2500 Du        
   3823 ****        52.5000  45.0000  57.7500 Du        
   3824 ****        52.5000  45.0000  58.0000 Du        
   3825 ****        52.5000  45.0000  58.2500 Du        
   3826 ****        52.5000  45.0000  58.5000 Du        
   3827 ****        52.5000  45.2500  57.7500 Du        
   3828 ****        52.5000  45.2500  58.0000 Du        
   3829 ****        52.5000  45.2500  58.2500 Du        
   3830 ****        52.5000  45.5000  57.5000 Du        
   3831 ****        52.5000  45.5000  57.7500 Du        
   3832 ****        52.5000  45.5000  58.0000 Du        
   3833 ****        52.5000  48.5000  50.0000 Du        
   3834 ****        52.5000  48.5000  50.2500 Du        
   3835 ****        52.5000  48.5000  50.5000 Du        
   3836 ****        52.5000  48.7500  50.0000 Du        
   3837 ****        52.5000  48.7500  50.2500 Du        
   3838 ****        52.5000  48.7500  50.5000 Du        
   3839 ****        52.5000  48.7500  50.7500 Du        
   3840 ****        52.5000  49.0000  50.2500 Du        
   3841 ****        52.5000  49.0000  50.5000 Du        
   3842 ****        52.5000  49.0000  50.7500 Du        
   3843 ****        52.5000  49.2500  50.2500 Du        
   3844 ****        52.5000  49.2500  50.5000 Du        
   3845 ****        52.5000  49.2500  50.7500 Du        
   3846 ****        52.5000  49.5000  50.5000 Du        
   3847 ****        52.5000  49.5000  50.7500 Du        
   3848 ****        52.5000  56.0000  60.2500 Du        
   3849 ****        52.5000  56.0000  60.5000 Du        
   3850 ****        52.5000  56.0000  60.7500 Du        
   3851 ****        52.5000  56.0000  61.0000 Du        
   3852 ****        52.5000  56.0000  61.2500 Du        
   3853 ****        52.5000  56.0000  61.5000 Du        
   3854 ****        52.5000  56.0000  61.7500 Du        
   3855 ****        52.5000  56.2500  59.7500 Du        
   3856 ****        52.5000  56.2500  60.0000 Du        
   3857 ****        52.5000  56.2500  60.2500 Du        
   3858 ****        52.5000  56.2500  60.5000 Du        
   3859 ****        52.5000  56.2500  60.7500 Du        
   3860 ****        52.5000  56.2500  61.0000 Du        
   3861 ****        52.5000  56.2500  61.2500 Du        
   3862 ****        52.5000  56.2500  61.5000 Du        
   3863 ****        52.5000  56.2500  61.7500 Du        
   3864 ****        52.5000  56.2500  62.0000 Du        
   3865 ****        52.5000  56.2500  62.2500 Du        
   3866 ****        52.5000  56.5000  59.7500 Du        
   3867 ****        52.5000  56.5000  60.0000 Du        
   3868 ****        52.5000  56.5000  60.2500 Du        
   3869 ****        52.5000  56.5000  60.5000 Du        
   3870 ****        52.5000  56.5000  60.7500 Du        
   3871 ****        52.5000  56.5000  61.0000 Du        
   3872 ****        52.5000  56.5000  61.2500 Du        
   3873 ****        52.5000  56.5000  61.5000 Du        
   3874 ****        52.5000  56.5000  61.7500 Du        
   3875 ****        52.5000  56.5000  62.0000 Du        
   3876 ****        52.5000  56.5000  62.2500 Du        
   3877 ****        52.5000  56.5000  62.5000 Du        
   3878 ****        52.5000  56.7500  60.0000 Du        
   3879 ****        52.5000  56.7500  60.2500 Du        
   3880 ****        52.5000  56.7500  60.5000 Du        
   3881 ****        52.5000  56.7500  60.7500 Du        
   3882 ****        52.5000  56.7500  61.0000 Du        
   3883 ****        52.5000  56.7500  61.2500 Du        
   3884 ****        52.5000  56.7500  61.5000 Du        
   3885 ****        52.5000  56.7500  61.7500 Du        
   3886 ****        52.5000  56.7500  62.0000 Du        
   3887 ****        52.5000  56.7500  62.2500 Du        
   3888 ****        52.5000  56.7500  62.5000 Du        
   3889 ****        52.5000  56.7500  62.7500 Du        
   3890 ****        52.5000  56.7500  63.0000 Du        
   3891 ****        52.5000  57.0000  60.2500 Du        
   3892 ****        52.5000  57.0000  60.5000 Du        
   3893 ****        52.5000  57.0000  60.7500 Du        
   3894 ****        52.5000  57.0000  61.0000 Du        
   3895 ****        52.5000  57.0000  61.2500 Du        
   3896 ****        52.5000  57.0000  61.5000 Du        
   3897 ****        52.5000  57.0000  61.7500 Du        
   3898 ****        52.5000  57.0000  62.0000 Du        
   3899 ****        52.5000  57.0000  62.2500 Du        
   3900 ****        52.5000  57.0000  62.5000 Du        
   3901 ****        52.5000  57.0000  62.7500 Du        
   3902 ****        52.5000  57.0000  63.0000 Du        
   3903 ****        52.5000  57.0000  63.2500 Du        
   3904 ****        52.5000  57.0000  63.5000 Du        
   3905 ****        52.5000  57.2500  60.5000 Du        
   3906 ****        52.5000  57.2500  60.7500 Du        
   3907 ****        52.5000  57.2500  61.0000 Du        
   3908 ****        52.5000  57.2500  61.2500 Du        
   3909 ****        52.5000  57.2500  61.5000 Du        
   3910 ****        52.5000  57.2500  61.7500 Du        
   3911 ****        52.5000  57.2500  62.0000 Du        
   3912 ****        52.5000  57.2500  62.2500 Du        
   3913 ****        52.5000  57.2500  62.5000 Du        
   3914 ****        52.5000  57.2500  62.7500 Du        
   3915 ****        52.5000  57.2500  63.0000 Du        
   3916 ****        52.5000  57.2500  63.2500 Du        
   3917 ****        52.5000  57.2500  63.5000 Du        
   3918 ****        52.5000  57.2500  63.7500 Du        
   3919 ****        52.5000  57.2500  64.0000 Du        
   3920 ****        52.5000  57.5000  60.7500 Du        
   3921 ****        52.5000  57.5000  61.0000 Du        
   3922 ****        52.5000  57.5000  61.2500 Du        
   3923 ****        52.5000  57.5000  61.5000 Du        
   3924 ****        52.5000  57.5000  61.7500 Du        
   3925 ****        52.5000  57.5000  62.0000 Du        
   3926 ****        52.5000  57.5000  62.2500 Du        
   3927 ****        52.5000  57.5000  62.5000 Du        
   3928 ****        52.5000  57.5000  62.7500 Du        
   3929 ****        52.5000  57.5000  63.0000 Du        
   3930 ****        52.5000  57.5000  63.2500 Du        
   3931 ****        52.5000  57.5000  63.5000 Du        
   3932 ****        52.5000  57.5000  63.7500 Du        
   3933 ****        52.5000  57.5000  64.0000 Du        
   3934 ****        52.5000  57.5000  64.2500 Du        
   3935 ****        52.5000  57.7500  61.0000 Du        
   3936 ****        52.5000  57.7500  61.2500 Du        
   3937 ****        52.5000  57.7500  61.5000 Du        
   3938 ****        52.5000  57.7500  61.7500 Du        
   3939 ****        52.5000  57.7500  62.0000 Du        
   3940 ****        52.5000  57.7500  62.2500 Du        
   3941 ****        52.5000  57.7500  62.5000 Du        
   3942 ****        52.5000  57.7500  62.7500 Du        
   3943 ****        52.5000  57.7500  63.0000 Du        
   3944 ****        52.5000  57.7500  63.2500 Du        
   3945 ****        52.5000  57.7500  63.5000 Du        
   3946 ****        52.5000  57.7500  63.7500 Du        
   3947 ****        52.5000  57.7500  64.0000 Du        
   3948 ****        52.5000  57.7500  64.2500 Du        
   3949 ****        52.5000  58.0000  62.2500 Du        
   3950 ****        52.5000  58.0000  62.5000 Du        
   3951 ****        52.5000  58.0000  62.7500 Du        
   3952 ****        52.5000  58.0000  63.0000 Du        
   3953 ****        52.5000  58.0000  63.2500 Du        
   3954 ****        52.5000  58.0000  63.5000 Du        
   3955 ****        52.5000  58.0000  63.7500 Du        
   3956 ****        52.5000  58.0000  64.0000 Du        
   3957 ****        52.5000  58.0000  64.2500 Du        
   3958 ****        52.5000  58.0000  64.5000 Du        
   3959 ****        52.5000  58.2500  63.0000 Du        
   3960 ****        52.5000  58.2500  63.2500 Du        
   3961 ****        52.5000  58.2500  63.5000 Du        
   3962 ****        52.5000  58.2500  63.7500 Du        
   3963 ****        52.5000  58.2500  64.0000 Du        
   3964 ****        52.5000  58.2500  64.2500 Du        
   3965 ****        52.5000  58.2500  64.5000 Du        
   3966 ****        52.5000  58.5000  63.2500 Du        
   3967 ****        52.5000  58.5000  63.5000 Du        
   3968 ****        52.5000  58.5000  63.7500 Du        
   3969 ****        52.5000  58.5000  64.0000 Du        
   3970 ****        52.5000  58.5000  64.2500 Du        
   3971 ****        52.5000  58.5000  64.5000 Du        
   3972 ****        52.5000  58.7500  63.7500 Du        
   3973 ****        52.5000  58.7500  64.0000 Du        
   3974 ****        52.5000  58.7500  64.2500 Du        
   3975 ****        52.5000  58.7500  64.5000 Du        
   3976 ****        52.5000  59.0000  64.0000 Du        
   3977 ****        52.5000  59.0000  64.2500 Du        
   3978 ****        52.5000  59.0000  64.5000 Du        
   3979 ****        52.7500  45.0000  57.7500 Du        
   3980 ****        52.7500  45.0000  58.0000 Du        
   3981 ****        52.7500  45.0000  58.2500 Du        
   3982 ****        52.7500  45.0000  58.5000 Du        
   3983 ****        52.7500  45.2500  58.0000 Du        
   3984 ****        52.7500  49.0000  50.5000 Du        
   3985 ****        52.7500  49.0000  50.7500 Du        
   3986 ****        52.7500  49.2500  50.5000 Du        
   3987 ****        52.7500  49.2500  50.7500 Du        
   3988 ****        52.7500  56.0000  60.7500 Du        
   3989 ****        52.7500  56.0000  61.0000 Du        
   3990 ****        52.7500  56.0000  61.2500 Du        
   3991 ****        52.7500  56.0000  61.5000 Du        
   3992 ****        52.7500  56.0000  61.7500 Du        
   3993 ****        52.7500  56.0000  62.0000 Du        
   3994 ****        52.7500  56.2500  59.7500 Du        
   3995 ****        52.7500  56.2500  60.0000 Du        
   3996 ****        52.7500  56.2500  60.2500 Du        
   3997 ****        52.7500  56.2500  60.5000 Du        
   3998 ****        52.7500  56.2500  60.7500 Du        
   3999 ****        52.7500  56.2500  61.0000 Du        
   4000 ****        52.7500  56.2500  61.2500 Du        
   4001 ****        52.7500  56.2500  61.5000 Du        
   4002 ****        52.7500  56.2500  61.7500 Du        
   4003 ****        52.7500  56.2500  62.0000 Du        
   4004 ****        52.7500  56.2500  62.2500 Du        
   4005 ****        52.7500  56.5000  59.5000 Du        
   4006 ****        52.7500  56.5000  59.7500 Du        
   4007 ****        52.7500  56.5000  60.0000 Du        
   4008 ****        52.7500  56.5000  60.2500 Du        
   4009 ****        52.7500  56.5000  60.5000 Du        
   4010 ****        52.7500  56.5000  60.7500 Du        
   4011 ****        52.7500  56.5000  61.0000 Du        
   4012 ****        52.7500  56.5000  61.2500 Du        
   4013 ****        52.7500  56.5000  61.5000 Du        
   4014 ****        52.7500  56.5000  61.7500 Du        
   4015 ****        52.7500  56.5000  62.0000 Du        
   4016 ****        52.7500  56.5000  62.2500 Du        
   4017 ****        52.7500  56.5000  62.5000 Du        
   4018 ****        52.7500  56.7500  59.7500 Du        
   4019 ****        52.7500  56.7500  60.0000 Du        
   4020 ****        52.7500  56.7500  60.2500 Du        
   4021 ****        52.7500  56.7500  60.5000 Du        
   4022 ****        52.7500  56.7500  60.7500 Du        
   4023 ****        52.7500  56.7500  61.0000 Du        
   4024 ****        52.7500  56.7500  61.2500 Du        
   4025 ****        52.7500  56.7500  61.5000 Du        
   4026 ****        52.7500  56.7500  61.7500 Du        
   4027 ****        52.7500  56.7500  62.0000 Du        
   4028 ****        52.7500  56.7500  62.2500 Du        
   4029 ****        52.7500  56.7500  62.5000 Du        
   4030 ****        52.7500  56.7500  62.7500 Du        
   4031 ****        52.7500  56.7500  63.0000 Du        
   4032 ****        52.7500  57.0000  59.7500 Du        
   4033 ****        52.7500  57.0000  60.0000 Du        
   4034 ****        52.7500  57.0000  60.2500 Du        
   4035 ****        52.7500  57.0000  60.5000 Du        
   4036 ****        52.7500  57.0000  60.7500 Du        
   4037 ****        52.7500  57.0000  61.0000 Du        
   4038 ****        52.7500  57.0000  61.2500 Du        
   4039 ****        52.7500  57.0000  61.5000 Du        
   4040 ****        52.7500  57.0000  61.7500 Du        
   4041 ****        52.7500  57.0000  62.0000 Du        
   4042 ****        52.7500  57.0000  62.2500 Du        
   4043 ****        52.7500  57.0000  62.5000 Du        
   4044 ****        52.7500  57.0000  62.7500 Du        
   4045 ****        52.7500  57.0000  63.0000 Du        
   4046 ****        52.7500  57.0000  63.2500 Du        
   4047 ****        52.7500  57.0000  63.5000 Du        
   4048 ****        52.7500  57.2500  60.2500 Du        
   4049 ****        52.7500  57.2500  60.5000 Du        
   4050 ****        52.7500  57.2500  60.7500 Du        
   4051 ****        52.7500  57.2500  61.0000 Du        
   4052 ****        52.7500  57.2500  61.2500 Du        
   4053 ****        52.7500  57.2500  61.5000 Du        
   4054 ****        52.7500  57.2500  61.7500 Du        
   4055 ****        52.7500  57.2500  62.0000 Du        
   4056 ****        52.7500  57.2500  62.2500 Du        
   4057 ****        52.7500  57.2500  62.5000 Du        
   4058 ****        52.7500  57.2500  62.7500 Du        
   4059 ****        52.7500  57.2500  63.0000 Du        
   4060 ****        52.7500  57.2500  63.2500 Du        
   4061 ****        52.7500  57.2500  63.5000 Du        
   4062 ****        52.7500  57.2500  63.7500 Du        
   4063 ****        52.7500  57.2500  64.0000 Du        
   4064 ****        52.7500  57.5000  60.5000 Du        
   4065 ****        52.7500  57.5000  60.7500 Du        
   4066 ****        52.7500  57.5000  61.0000 Du        
   4067 ****        52.7500  57.5000  61.2500 Du        
   4068 ****        52.7500  57.5000  61.5000 Du        
   4069 ****        52.7500  57.5000  61.7500 Du        
   4070 ****        52.7500  57.5000  62.0000 Du        
   4071 ****        52.7500  57.5000  62.2500 Du        
   4072 ****        52.7500  57.5000  62.5000 Du        
   4073 ****        52.7500  57.5000  62.7500 Du        
   4074 ****        52.7500  57.5000  63.0000 Du        
   4075 ****        52.7500  57.5000  63.2500 Du        
   4076 ****        52.7500  57.5000  63.5000 Du        
   4077 ****        52.7500  57.5000  63.7500 Du        
   4078 ****        52.7500  57.5000  64.0000 Du        
   4079 ****        52.7500  57.5000  64.2500 Du        
   4080 ****        52.7500  57.7500  60.7500 Du        
   4081 ****        52.7500  57.7500  61.0000 Du        
   4082 ****        52.7500  57.7500  61.2500 Du        
   4083 ****        52.7500  57.7500  61.5000 Du        
   4084 ****        52.7500  57.7500  61.7500 Du        
   4085 ****        52.7500  57.7500  62.0000 Du        
   4086 ****        52.7500  57.7500  62.2500 Du        
   4087 ****        52.7500  57.7500  62.5000 Du        
   4088 ****        52.7500  57.7500  62.7500 Du        
   4089 ****        52.7500  57.7500  63.0000 Du        
   4090 ****        52.7500  57.7500  63.2500 Du        
   4091 ****        52.7500  57.7500  63.5000 Du        
   4092 ****        52.7500  57.7500  63.7500 Du        
   4093 ****        52.7500  57.7500  64.0000 Du        
   4094 ****        52.7500  57.7500  64.2500 Du        
   4095 ****        52.7500  58.0000  61.2500 Du        
   4096 ****        52.7500  58.0000  61.5000 Du        
   4097 ****        52.7500  58.0000  61.7500 Du        
   4098 ****        52.7500  58.0000  62.0000 Du        
   4099 ****        52.7500  58.0000  62.2500 Du        
   4100 ****        52.7500  58.0000  62.5000 Du        
   4101 ****        52.7500  58.0000  62.7500 Du        
   4102 ****        52.7500  58.0000  63.0000 Du        
   4103 ****        52.7500  58.0000  63.2500 Du        
   4104 ****        52.7500  58.0000  63.5000 Du        
   4105 ****        52.7500  58.0000  63.7500 Du        
   4106 ****        52.7500  58.0000  64.0000 Du        
   4107 ****        52.7500  58.0000  64.2500 Du        
   4108 ****        52.7500  58.0000  64.5000 Du        
   4109 ****        52.7500  58.2500  62.7500 Du        
   4110 ****        52.7500  58.2500  63.0000 Du        
   4111 ****        52.7500  58.2500  63.2500 Du        
   4112 ****        52.7500  58.2500  63.5000 Du        
   4113 ****        52.7500  58.2500  63.7500 Du        
   4114 ****        52.7500  58.2500  64.0000 Du        
   4115 ****        52.7500  58.2500  64.2500 Du        
   4116 ****        52.7500  58.2500  64.5000 Du        
   4117 ****        52.7500  58.5000  63.2500 Du        
   4118 ****        52.7500  58.5000  63.5000 Du        
   4119 ****        52.7500  58.5000  63.7500 Du        
   4120 ****        52.7500  58.5000  64.0000 Du        
   4121 ****        52.7500  58.5000  64.2500 Du        
   4122 ****        52.7500  58.5000  64.5000 Du        
   4123 ****        52.7500  58.7500  63.5000 Du        
   4124 ****        52.7500  58.7500  63.7500 Du        
   4125 ****        52.7500  58.7500  64.0000 Du        
   4126 ****        52.7500  58.7500  64.2500 Du        
   4127 ****        52.7500  58.7500  64.5000 Du        
   4128 ****        52.7500  59.0000  63.7500 Du        
   4129 ****        52.7500  59.0000  64.0000 Du        
   4130 ****        52.7500  59.0000  64.2500 Du        
   4131 ****        52.7500  59.0000  64.5000 Du        
   4132 ****        52.7500  59.2500  64.2500 Du        
   4133 ****        52.7500  71.5000  47.5000 Du        
   4134 ****        52.7500  71.7500  47.5000 Du        
   4135 ****        53.0000  56.0000  61.7500 Du        
   4136 ****        53.0000  56.0000  62.0000 Du        
   4137 ****        53.0000  56.2500  60.0000 Du        
   4138 ****        53.0000  56.2500  60.2500 Du        
   4139 ****        53.0000  56.2500  60.5000 Du        
   4140 ****        53.0000  56.2500  60.7500 Du        
   4141 ****        53.0000  56.2500  61.0000 Du        
   4142 ****        53.0000  56.2500  61.2500 Du        
   4143 ****        53.0000  56.2500  61.5000 Du        
   4144 ****        53.0000  56.2500  61.7500 Du        
   4145 ****        53.0000  56.2500  62.0000 Du        
   4146 ****        53.0000  56.2500  62.2500 Du        
   4147 ****        53.0000  56.5000  59.2500 Du        
   4148 ****        53.0000  56.5000  59.5000 Du        
   4149 ****        53.0000  56.5000  59.7500 Du        
   4150 ****        53.0000  56.5000  60.0000 Du        
   4151 ****        53.0000  56.5000  60.2500 Du        
   4152 ****        53.0000  56.5000  60.5000 Du        
   4153 ****        53.0000  56.5000  60.7500 Du        
   4154 ****        53.0000  56.5000  61.0000 Du        
   4155 ****        53.0000  56.5000  61.2500 Du        
   4156 ****        53.0000  56.5000  61.5000 Du        
   4157 ****        53.0000  56.5000  61.7500 Du        
   4158 ****        53.0000  56.5000  62.0000 Du        
   4159 ****        53.0000  56.5000  62.2500 Du        
   4160 ****        53.0000  56.5000  62.5000 Du        
   4161 ****        53.0000  56.5000  62.7500 Du        
   4162 ****        53.0000  56.7500  59.2500 Du        
   4163 ****        53.0000  56.7500  59.5000 Du        
   4164 ****        53.0000  56.7500  59.7500 Du        
   4165 ****        53.0000  56.7500  60.0000 Du        
   4166 ****        53.0000  56.7500  60.2500 Du        
   4167 ****        53.0000  56.7500  60.5000 Du        
   4168 ****        53.0000  56.7500  60.7500 Du        
   4169 ****        53.0000  56.7500  61.0000 Du        
   4170 ****        53.0000  56.7500  61.2500 Du        
   4171 ****        53.0000  56.7500  61.5000 Du        
   4172 ****        53.0000  56.7500  61.7500 Du        
   4173 ****        53.0000  56.7500  62.0000 Du        
   4174 ****        53.0000  56.7500  62.2500 Du        
   4175 ****        53.0000  56.7500  62.5000 Du        
   4176 ****        53.0000  56.7500  62.7500 Du        
   4177 ****        53.0000  56.7500  63.0000 Du        
   4178 ****        53.0000  57.0000  59.5000 Du        
   4179 ****        53.0000  57.0000  59.7500 Du        
   4180 ****        53.0000  57.0000  60.0000 Du        
   4181 ****        53.0000  57.0000  60.2500 Du        
   4182 ****        53.0000  57.0000  60.5000 Du        
   4183 ****        53.0000  57.0000  60.7500 Du        
   4184 ****        53.0000  57.0000  61.0000 Du        
   4185 ****        53.0000  57.0000  61.2500 Du        
   4186 ****        53.0000  57.0000  61.5000 Du        
   4187 ****        53.0000  57.0000  61.7500 Du        
   4188 ****        53.0000  57.0000  62.0000 Du        
   4189 ****        53.0000  57.0000  62.2500 Du        
   4190 ****        53.0000  57.0000  62.5000 Du        
   4191 ****        53.0000  57.0000  62.7500 Du        
   4192 ****        53.0000  57.0000  63.0000 Du        
   4193 ****        53.0000  57.0000  63.2500 Du        
   4194 ****        53.0000  57.0000  63.5000 Du        
   4195 ****        53.0000  57.2500  59.7500 Du        
   4196 ****        53.0000  57.2500  60.0000 Du        
   4197 ****        53.0000  57.2500  60.2500 Du        
   4198 ****        53.0000  57.2500  60.5000 Du        
   4199 ****        53.0000  57.2500  60.7500 Du        
   4200 ****        53.0000  57.2500  61.0000 Du        
   4201 ****        53.0000  57.2500  61.2500 Du        
   4202 ****        53.0000  57.2500  61.5000 Du        
   4203 ****        53.0000  57.2500  61.7500 Du        
   4204 ****        53.0000  57.2500  62.0000 Du        
   4205 ****        53.0000  57.2500  62.2500 Du        
   4206 ****        53.0000  57.2500  62.5000 Du        
   4207 ****        53.0000  57.2500  62.7500 Du        
   4208 ****        53.0000  57.2500  63.0000 Du        
   4209 ****        53.0000  57.2500  63.2500 Du        
   4210 ****        53.0000  57.2500  63.5000 Du        
   4211 ****        53.0000  57.2500  63.7500 Du        
   4212 ****        53.0000  57.2500  64.0000 Du        
   4213 ****        53.0000  57.5000  60.2500 Du        
   4214 ****        53.0000  57.5000  60.5000 Du        
   4215 ****        53.0000  57.5000  60.7500 Du        
   4216 ****        53.0000  57.5000  61.0000 Du        
   4217 ****        53.0000  57.5000  61.2500 Du        
   4218 ****        53.0000  57.5000  61.5000 Du        
   4219 ****        53.0000  57.5000  61.7500 Du        
   4220 ****        53.0000  57.5000  62.0000 Du        
   4221 ****        53.0000  57.5000  62.2500 Du        
   4222 ****        53.0000  57.5000  62.5000 Du        
   4223 ****        53.0000  57.5000  62.7500 Du        
   4224 ****        53.0000  57.5000  63.0000 Du        
   4225 ****        53.0000  57.5000  63.2500 Du        
   4226 ****        53.0000  57.5000  63.5000 Du        
   4227 ****        53.0000  57.5000  63.7500 Du        
   4228 ****        53.0000  57.5000  64.0000 Du        
   4229 ****        53.0000  57.5000  64.2500 Du        
   4230 ****        53.0000  57.7500  60.5000 Du        
   4231 ****        53.0000  57.7500  60.7500 Du        
   4232 ****        53.0000  57.7500  61.0000 Du        
   4233 ****        53.0000  57.7500  61.2500 Du        
   4234 ****        53.0000  57.7500  61.5000 Du        
   4235 ****        53.0000  57.7500  61.7500 Du        
   4236 ****        53.0000  57.7500  62.0000 Du        
   4237 ****        53.0000  57.7500  62.2500 Du        
   4238 ****        53.0000  57.7500  62.5000 Du        
   4239 ****        53.0000  57.7500  62.7500 Du        
   4240 ****        53.0000  57.7500  63.0000 Du        
   4241 ****        53.0000  57.7500  63.2500 Du        
   4242 ****        53.0000  57.7500  63.5000 Du        
   4243 ****        53.0000  57.7500  63.7500 Du        
   4244 ****        53.0000  57.7500  64.0000 Du        
   4245 ****        53.0000  57.7500  64.2500 Du        
   4246 ****        53.0000  58.0000  60.7500 Du        
   4247 ****        53.0000  58.0000  61.0000 Du        
   4248 ****        53.0000  58.0000  61.2500 Du        
   4249 ****        53.0000  58.0000  61.5000 Du        
   4250 ****        53.0000  58.0000  61.7500 Du        
   4251 ****        53.0000  58.0000  62.0000 Du        
   4252 ****        53.0000  58.0000  62.2500 Du        
   4253 ****        53.0000  58.0000  62.5000 Du        
   4254 ****        53.0000  58.0000  62.7500 Du        
   4255 ****        53.0000  58.0000  63.0000 Du        
   4256 ****        53.0000  58.0000  63.2500 Du        
   4257 ****        53.0000  58.0000  63.5000 Du        
   4258 ****        53.0000  58.0000  63.7500 Du        
   4259 ****        53.0000  58.0000  64.0000 Du        
   4260 ****        53.0000  58.0000  64.2500 Du        
   4261 ****        53.0000  58.0000  64.5000 Du        
   4262 ****        53.0000  58.2500  62.5000 Du        
   4263 ****        53.0000  58.2500  62.7500 Du        
   4264 ****        53.0000  58.2500  63.0000 Du        
   4265 ****        53.0000  58.2500  63.2500 Du        
   4266 ****        53.0000  58.2500  63.5000 Du        
   4267 ****        53.0000  58.2500  63.7500 Du        
   4268 ****        53.0000  58.2500  64.0000 Du        
   4269 ****        53.0000  58.2500  64.2500 Du        
   4270 ****        53.0000  58.2500  64.5000 Du        
   4271 ****        53.0000  58.5000  63.0000 Du        
   4272 ****        53.0000  58.5000  63.2500 Du        
   4273 ****        53.0000  58.5000  63.5000 Du        
   4274 ****        53.0000  58.5000  63.7500 Du        
   4275 ****        53.0000  58.5000  64.0000 Du        
   4276 ****        53.0000  58.5000  64.2500 Du        
   4277 ****        53.0000  58.5000  64.5000 Du        
   4278 ****        53.0000  58.7500  63.2500 Du        
   4279 ****        53.0000  58.7500  63.5000 Du        
   4280 ****        53.0000  58.7500  63.7500 Du        
   4281 ****        53.0000  58.7500  64.0000 Du        
   4282 ****        53.0000  58.7500  64.2500 Du        
   4283 ****        53.0000  58.7500  64.5000 Du        
   4284 ****        53.0000  59.0000  63.7500 Du        
   4285 ****        53.0000  59.0000  64.0000 Du        
   4286 ****        53.0000  59.0000  64.2500 Du        
   4287 ****        53.0000  59.0000  64.5000 Du        
   4288 ****        53.0000  59.2500  64.0000 Du        
   4289 ****        53.0000  69.5000  47.5000 Du        
   4290 ****        53.0000  69.7500  47.2500 Du        
   4291 ****        53.0000  69.7500  47.5000 Du        
   4292 ****        53.0000  70.0000  47.2500 Du        
   4293 ****        53.0000  70.0000  47.5000 Du        
   4294 ****        53.0000  70.0000  47.7500 Du        
   4295 ****        53.0000  70.2500  47.2500 Du        
   4296 ****        53.0000  70.2500  47.5000 Du        
   4297 ****        53.0000  70.2500  47.7500 Du        
   4298 ****        53.0000  70.5000  47.2500 Du        
   4299 ****        53.0000  70.5000  47.5000 Du        
   4300 ****        53.0000  70.5000  47.7500 Du        
   4301 ****        53.0000  70.7500  47.2500 Du        
   4302 ****        53.0000  70.7500  47.5000 Du        
   4303 ****        53.0000  70.7500  47.7500 Du        
   4304 ****        53.0000  71.0000  47.2500 Du        
   4305 ****        53.0000  71.0000  47.5000 Du        
   4306 ****        53.0000  71.0000  47.7500 Du        
   4307 ****        53.0000  71.0000  48.0000 Du        
   4308 ****        53.0000  71.2500  47.2500 Du        
   4309 ****        53.0000  71.2500  47.5000 Du        
   4310 ****        53.0000  71.2500  47.7500 Du        
   4311 ****        53.0000  71.2500  48.0000 Du        
   4312 ****        53.0000  71.5000  47.5000 Du        
   4313 ****        53.0000  71.5000  47.7500 Du        
   4314 ****        53.0000  71.5000  48.0000 Du        
   4315 ****        53.0000  71.7500  47.2500 Du        
   4316 ****        53.0000  71.7500  47.5000 Du        
   4317 ****        53.0000  71.7500  47.7500 Du        
   4318 ****        53.0000  71.7500  48.0000 Du        
   4319 ****        53.0000  72.0000  47.0000 Du        
   4320 ****        53.0000  72.0000  47.2500 Du        
   4321 ****        53.0000  72.0000  47.5000 Du        
   4322 ****        53.0000  72.0000  47.7500 Du        
   4323 ****        53.0000  72.2500  47.5000 Du        
   4324 ****        53.0000  72.2500  47.7500 Du        
   4325 ****        53.2500  55.2500  55.5000 Du        
   4326 ****        53.2500  55.2500  55.7500 Du        
   4327 ****        53.2500  55.2500  56.0000 Du        
   4328 ****        53.2500  55.5000  55.2500 Du        
   4329 ****        53.2500  55.5000  55.5000 Du        
   4330 ****        53.2500  55.5000  55.7500 Du        
   4331 ****        53.2500  55.5000  56.0000 Du        
   4332 ****        53.2500  55.5000  56.2500 Du        
   4333 ****        53.2500  55.7500  55.2500 Du        
   4334 ****        53.2500  55.7500  55.5000 Du        
   4335 ****        53.2500  55.7500  55.7500 Du        
   4336 ****        53.2500  55.7500  56.0000 Du        
   4337 ****        53.2500  56.2500  61.2500 Du        
   4338 ****        53.2500  56.2500  61.5000 Du        
   4339 ****        53.2500  56.2500  61.7500 Du        
   4340 ****        53.2500  56.2500  62.0000 Du        
   4341 ****        53.2500  56.2500  62.2500 Du        
   4342 ****        53.2500  56.2500  62.5000 Du        
   4343 ****        53.2500  56.5000  59.0000 Du        
   4344 ****        53.2500  56.5000  59.2500 Du        
   4345 ****        53.2500  56.5000  59.5000 Du        
   4346 ****        53.2500  56.5000  59.7500 Du        
   4347 ****        53.2500  56.5000  60.0000 Du        
   4348 ****        53.2500  56.5000  60.2500 Du        
   4349 ****        53.2500  56.5000  60.5000 Du        
   4350 ****        53.2500  56.5000  60.7500 Du        
   4351 ****        53.2500  56.5000  61.0000 Du        
   4352 ****        53.2500  56.5000  61.2500 Du        
   4353 ****        53.2500  56.5000  61.5000 Du        
   4354 ****        53.2500  56.5000  61.7500 Du        
   4355 ****        53.2500  56.5000  62.0000 Du        
   4356 ****        53.2500  56.5000  62.2500 Du        
   4357 ****        53.2500  56.5000  62.5000 Du        
   4358 ****        53.2500  56.5000  62.7500 Du        
   4359 ****        53.2500  56.7500  59.0000 Du        
   4360 ****        53.2500  56.7500  59.2500 Du        
   4361 ****        53.2500  56.7500  59.5000 Du        
   4362 ****        53.2500  56.7500  59.7500 Du        
   4363 ****        53.2500  56.7500  60.0000 Du        
   4364 ****        53.2500  56.7500  60.2500 Du        
   4365 ****        53.2500  56.7500  60.5000 Du        
   4366 ****        53.2500  56.7500  60.7500 Du        
   4367 ****        53.2500  56.7500  61.0000 Du        
   4368 ****        53.2500  56.7500  61.2500 Du        
   4369 ****        53.2500  56.7500  61.5000 Du        
   4370 ****        53.2500  56.7500  61.7500 Du        
   4371 ****        53.2500  56.7500  62.0000 Du        
   4372 ****        53.2500  56.7500  62.2500 Du        
   4373 ****        53.2500  56.7500  62.5000 Du        
   4374 ****        53.2500  56.7500  62.7500 Du        
   4375 ****        53.2500  56.7500  63.0000 Du        
   4376 ****        53.2500  57.0000  59.0000 Du        
   4377 ****        53.2500  57.0000  59.2500 Du        
   4378 ****        53.2500  57.0000  59.5000 Du        
   4379 ****        53.2500  57.0000  59.7500 Du        
   4380 ****        53.2500  57.0000  60.0000 Du        
   4381 ****        53.2500  57.0000  60.2500 Du        
   4382 ****        53.2500  57.0000  60.5000 Du        
   4383 ****        53.2500  57.0000  60.7500 Du        
   4384 ****        53.2500  57.0000  61.0000 Du        
   4385 ****        53.2500  57.0000  61.2500 Du        
   4386 ****        53.2500  57.0000  61.5000 Du        
   4387 ****        53.2500  57.0000  61.7500 Du        
   4388 ****        53.2500  57.0000  62.0000 Du        
   4389 ****        53.2500  57.0000  62.2500 Du        
   4390 ****        53.2500  57.0000  62.5000 Du        
   4391 ****        53.2500  57.0000  62.7500 Du        
   4392 ****        53.2500  57.0000  63.0000 Du        
   4393 ****        53.2500  57.0000  63.2500 Du        
   4394 ****        53.2500  57.0000  63.5000 Du        
   4395 ****        53.2500  57.2500  59.5000 Du        
   4396 ****        53.2500  57.2500  59.7500 Du        
   4397 ****        53.2500  57.2500  60.0000 Du        
   4398 ****        53.2500  57.2500  60.2500 Du        
   4399 ****        53.2500  57.2500  60.5000 Du        
   4400 ****        53.2500  57.2500  60.7500 Du        
   4401 ****        53.2500  57.2500  61.0000 Du        
   4402 ****        53.2500  57.2500  61.2500 Du        
   4403 ****        53.2500  57.2500  61.5000 Du        
   4404 ****        53.2500  57.2500  61.7500 Du        
   4405 ****        53.2500  57.2500  62.0000 Du        
   4406 ****        53.2500  57.2500  62.2500 Du        
   4407 ****        53.2500  57.2500  62.5000 Du        
   4408 ****        53.2500  57.2500  62.7500 Du        
   4409 ****        53.2500  57.2500  63.0000 Du        
   4410 ****        53.2500  57.2500  63.2500 Du        
   4411 ****        53.2500  57.2500  63.5000 Du        
   4412 ****        53.2500  57.2500  63.7500 Du        
   4413 ****        53.2500  57.2500  64.0000 Du        
   4414 ****        53.2500  57.5000  59.7500 Du        
   4415 ****        53.2500  57.5000  60.0000 Du        
   4416 ****        53.2500  57.5000  60.2500 Du        
   4417 ****        53.2500  57.5000  60.5000 Du        
   4418 ****        53.2500  57.5000  60.7500 Du        
   4419 ****        53.2500  57.5000  61.0000 Du        
   4420 ****        53.2500  57.5000  61.2500 Du        
   4421 ****        53.2500  57.5000  61.5000 Du        
   4422 ****        53.2500  57.5000  61.7500 Du        
   4423 ****        53.2500  57.5000  62.0000 Du        
   4424 ****        53.2500  57.5000  62.2500 Du        
   4425 ****        53.2500  57.5000  62.5000 Du        
   4426 ****        53.2500  57.5000  62.7500 Du        
   4427 ****        53.2500  57.5000  63.0000 Du        
   4428 ****        53.2500  57.5000  63.2500 Du        
   4429 ****        53.2500  57.5000  63.5000 Du        
   4430 ****        53.2500  57.5000  63.7500 Du        
   4431 ****        53.2500  57.5000  64.0000 Du        
   4432 ****        53.2500  57.5000  64.2500 Du        
   4433 ****        53.2500  57.7500  60.2500 Du        
   4434 ****        53.2500  57.7500  60.5000 Du        
   4435 ****        53.2500  57.7500  60.7500 Du        
   4436 ****        53.2500  57.7500  61.0000 Du        
   4437 ****        53.2500  57.7500  61.2500 Du        
   4438 ****        53.2500  57.7500  61.5000 Du        
   4439 ****        53.2500  57.7500  61.7500 Du        
   4440 ****        53.2500  57.7500  62.0000 Du        
   4441 ****        53.2500  57.7500  62.2500 Du        
   4442 ****        53.2500  57.7500  62.5000 Du        
   4443 ****        53.2500  57.7500  62.7500 Du        
   4444 ****        53.2500  57.7500  63.0000 Du        
   4445 ****        53.2500  57.7500  63.2500 Du        
   4446 ****        53.2500  57.7500  63.5000 Du        
   4447 ****        53.2500  57.7500  63.7500 Du        
   4448 ****        53.2500  57.7500  64.0000 Du        
   4449 ****        53.2500  57.7500  64.2500 Du        
   4450 ****        53.2500  58.0000  60.5000 Du        
   4451 ****        53.2500  58.0000  60.7500 Du        
   4452 ****        53.2500  58.0000  61.0000 Du        
   4453 ****        53.2500  58.0000  61.2500 Du        
   4454 ****        53.2500  58.0000  61.5000 Du        
   4455 ****        53.2500  58.0000  61.7500 Du        
   4456 ****        53.2500  58.0000  62.0000 Du        
   4457 ****        53.2500  58.0000  62.2500 Du        
   4458 ****        53.2500  58.0000  62.5000 Du        
   4459 ****        53.2500  58.0000  62.7500 Du        
   4460 ****        53.2500  58.0000  63.0000 Du        
   4461 ****        53.2500  58.0000  63.2500 Du        
   4462 ****        53.2500  58.0000  63.5000 Du        
   4463 ****        53.2500  58.0000  63.7500 Du        
   4464 ****        53.2500  58.0000  64.0000 Du        
   4465 ****        53.2500  58.0000  64.2500 Du        
   4466 ****        53.2500  58.0000  64.5000 Du        
   4467 ****        53.2500  58.2500  61.2500 Du        
   4468 ****        53.2500  58.2500  61.7500 Du        
   4469 ****        53.2500  58.2500  62.0000 Du        
   4470 ****        53.2500  58.2500  62.2500 Du        
   4471 ****        53.2500  58.2500  62.5000 Du        
   4472 ****        53.2500  58.2500  62.7500 Du        
   4473 ****        53.2500  58.2500  63.0000 Du        
   4474 ****        53.2500  58.2500  63.2500 Du        
   4475 ****        53.2500  58.2500  63.5000 Du        
   4476 ****        53.2500  58.2500  63.7500 Du        
   4477 ****        53.2500  58.2500  64.0000 Du        
   4478 ****        53.2500  58.2500  64.2500 Du        
   4479 ****        53.2500  58.2500  64.5000 Du        
   4480 ****        53.2500  58.5000  62.7500 Du        
   4481 ****        53.2500  58.5000  63.0000 Du        
   4482 ****        53.2500  58.5000  63.2500 Du        
   4483 ****        53.2500  58.5000  63.5000 Du        
   4484 ****        53.2500  58.5000  63.7500 Du        
   4485 ****        53.2500  58.5000  64.0000 Du        
   4486 ****        53.2500  58.5000  64.2500 Du        
   4487 ****        53.2500  58.5000  64.5000 Du        
   4488 ****        53.2500  58.7500  63.2500 Du        
   4489 ****        53.2500  58.7500  63.5000 Du        
   4490 ****        53.2500  58.7500  63.7500 Du        
   4491 ****        53.2500  58.7500  64.0000 Du        
   4492 ****        53.2500  58.7500  64.2500 Du        
   4493 ****        53.2500  58.7500  64.5000 Du        
   4494 ****        53.2500  59.0000  63.5000 Du        
   4495 ****        53.2500  59.0000  63.7500 Du        
   4496 ****        53.2500  59.0000  64.0000 Du        
   4497 ****        53.2500  59.0000  64.2500 Du        
   4498 ****        53.2500  69.5000  47.5000 Du        
   4499 ****        53.2500  69.5000  47.7500 Du        
   4500 ****        53.2500  69.7500  47.2500 Du        
   4501 ****        53.2500  69.7500  47.5000 Du        
   4502 ****        53.2500  69.7500  47.7500 Du        
   4503 ****        53.2500  70.0000  47.2500 Du        
   4504 ****        53.2500  70.0000  47.5000 Du        
   4505 ****        53.2500  70.0000  47.7500 Du        
   4506 ****        53.2500  70.0000  48.0000 Du        
   4507 ****        53.2500  70.2500  47.0000 Du        
   4508 ****        53.2500  70.2500  47.2500 Du        
   4509 ****        53.2500  70.2500  47.5000 Du        
   4510 ****        53.2500  70.2500  47.7500 Du        
   4511 ****        53.2500  70.2500  48.0000 Du        
   4512 ****        53.2500  70.5000  47.0000 Du        
   4513 ****        53.2500  70.5000  47.2500 Du        
   4514 ****        53.2500  70.5000  47.5000 Du        
   4515 ****        53.2500  70.5000  47.7500 Du        
   4516 ****        53.2500  70.5000  48.0000 Du        
   4517 ****        53.2500  70.5000  48.2500 Du        
   4518 ****        53.2500  70.7500  47.0000 Du        
   4519 ****        53.2500  70.7500  47.2500 Du        
   4520 ****        53.2500  70.7500  47.5000 Du        
   4521 ****        53.2500  70.7500  47.7500 Du        
   4522 ****        53.2500  70.7500  48.0000 Du        
   4523 ****        53.2500  70.7500  48.2500 Du        
   4524 ****        53.2500  71.0000  47.0000 Du        
   4525 ****        53.2500  71.0000  47.2500 Du        
   4526 ****        53.2500  71.0000  47.5000 Du        
   4527 ****        53.2500  71.0000  47.7500 Du        
   4528 ****        53.2500  71.0000  48.0000 Du        
   4529 ****        53.2500  71.0000  48.2500 Du        
   4530 ****        53.2500  71.2500  47.0000 Du        
   4531 ****        53.2500  71.2500  47.2500 Du        
   4532 ****        53.2500  71.2500  47.5000 Du        
   4533 ****        53.2500  71.2500  47.7500 Du        
   4534 ****        53.2500  71.2500  48.0000 Du        
   4535 ****        53.2500  71.2500  48.2500 Du        
   4536 ****        53.2500  71.5000  47.0000 Du        
   4537 ****        53.2500  71.5000  47.2500 Du        
   4538 ****        53.2500  71.5000  47.5000 Du        
   4539 ****        53.2500  71.5000  47.7500 Du        
   4540 ****        53.2500  71.5000  48.0000 Du        
   4541 ****        53.2500  71.7500  47.0000 Du        
   4542 ****        53.2500  71.7500  47.2500 Du        
   4543 ****        53.2500  71.7500  47.5000 Du        
   4544 ****        53.2500  71.7500  47.7500 Du        
   4545 ****        53.2500  71.7500  48.0000 Du        
   4546 ****        53.2500  72.0000  47.0000 Du        
   4547 ****        53.2500  72.0000  47.2500 Du        
   4548 ****        53.2500  72.0000  47.5000 Du        
   4549 ****        53.2500  72.0000  47.7500 Du        
   4550 ****        53.2500  72.2500  47.0000 Du        
   4551 ****        53.2500  72.2500  47.2500 Du        
   4552 ****        53.2500  72.2500  47.5000 Du        
   4553 ****        53.2500  72.2500  47.7500 Du        
   4554 ****        53.2500  72.5000  47.2500 Du        
   4555 ****        53.2500  72.7500  47.2500 Du        
   4556 ****        53.5000  55.2500  55.2500 Du        
   4557 ****        53.5000  55.2500  55.5000 Du        
   4558 ****        53.5000  55.2500  55.7500 Du        
   4559 ****        53.5000  55.2500  56.0000 Du        
   4560 ****        53.5000  55.2500  56.2500 Du        
   4561 ****        53.5000  55.5000  55.0000 Du        
   4562 ****        53.5000  55.5000  55.2500 Du        
   4563 ****        53.5000  55.5000  55.5000 Du        
   4564 ****        53.5000  55.5000  55.7500 Du        
   4565 ****        53.5000  55.5000  56.0000 Du        
   4566 ****        53.5000  55.5000  56.2500 Du        
   4567 ****        53.5000  55.5000  56.5000 Du        
   4568 ****        53.5000  55.7500  55.0000 Du        
   4569 ****        53.5000  55.7500  55.2500 Du        
   4570 ****        53.5000  55.7500  55.5000 Du        
   4571 ****        53.5000  55.7500  55.7500 Du        
   4572 ****        53.5000  55.7500  56.0000 Du        
   4573 ****        53.5000  55.7500  56.2500 Du        
   4574 ****        53.5000  55.7500  56.5000 Du        
   4575 ****        53.5000  55.7500  56.7500 Du        
   4576 ****        53.5000  56.0000  54.7500 Du        
   4577 ****        53.5000  56.0000  55.0000 Du        
   4578 ****        53.5000  56.0000  55.2500 Du        
   4579 ****        53.5000  56.0000  55.5000 Du        
   4580 ****        53.5000  56.0000  55.7500 Du        
   4581 ****        53.5000  56.0000  56.0000 Du        
   4582 ****        53.5000  56.0000  56.2500 Du        
   4583 ****        53.5000  56.0000  56.5000 Du        
   4584 ****        53.5000  56.0000  56.7500 Du        
   4585 ****        53.5000  56.0000  57.0000 Du        
   4586 ****        53.5000  56.2500  54.7500 Du        
   4587 ****        53.5000  56.2500  55.0000 Du        
   4588 ****        53.5000  56.2500  55.2500 Du        
   4589 ****        53.5000  56.2500  55.5000 Du        
   4590 ****        53.5000  56.2500  55.7500 Du        
   4591 ****        53.5000  56.2500  56.0000 Du        
   4592 ****        53.5000  56.2500  56.2500 Du        
   4593 ****        53.5000  56.2500  61.7500 Du        
   4594 ****        53.5000  56.2500  62.0000 Du        
   4595 ****        53.5000  56.2500  62.2500 Du        
   4596 ****        53.5000  56.5000  54.5000 Du        
   4597 ****        53.5000  56.5000  54.7500 Du        
   4598 ****        53.5000  56.5000  55.0000 Du        
   4599 ****        53.5000  56.5000  55.2500 Du        
   4600 ****        53.5000  56.5000  58.5000 Du        
   4601 ****        53.5000  56.5000  58.7500 Du        
   4602 ****        53.5000  56.5000  59.0000 Du        
   4603 ****        53.5000  56.5000  59.2500 Du        
   4604 ****        53.5000  56.5000  59.5000 Du        
   4605 ****        53.5000  56.5000  59.7500 Du        
   4606 ****        53.5000  56.5000  60.0000 Du        
   4607 ****        53.5000  56.5000  60.7500 Du        
   4608 ****        53.5000  56.5000  61.0000 Du        
   4609 ****        53.5000  56.5000  61.2500 Du        
   4610 ****        53.5000  56.5000  61.5000 Du        
   4611 ****        53.5000  56.5000  61.7500 Du        
   4612 ****        53.5000  56.5000  62.0000 Du        
   4613 ****        53.5000  56.5000  62.2500 Du        
   4614 ****        53.5000  56.5000  62.5000 Du        
   4615 ****        53.5000  56.5000  62.7500 Du        
   4616 ****        53.5000  56.7500  58.5000 Du        
   4617 ****        53.5000  56.7500  58.7500 Du        
   4618 ****        53.5000  56.7500  59.0000 Du        
   4619 ****        53.5000  56.7500  59.2500 Du        
   4620 ****        53.5000  56.7500  59.5000 Du        
   4621 ****        53.5000  56.7500  59.7500 Du        
   4622 ****        53.5000  56.7500  60.0000 Du        
   4623 ****        53.5000  56.7500  60.2500 Du        
   4624 ****        53.5000  56.7500  60.5000 Du        
   4625 ****        53.5000  56.7500  60.7500 Du        
   4626 ****        53.5000  56.7500  61.0000 Du        
   4627 ****        53.5000  56.7500  61.2500 Du        
   4628 ****        53.5000  56.7500  61.5000 Du        
   4629 ****        53.5000  56.7500  61.7500 Du        
   4630 ****        53.5000  56.7500  62.0000 Du        
   4631 ****        53.5000  56.7500  62.2500 Du        
   4632 ****        53.5000  56.7500  62.5000 Du        
   4633 ****        53.5000  56.7500  62.7500 Du        
   4634 ****        53.5000  56.7500  63.0000 Du        
   4635 ****        53.5000  57.0000  58.5000 Du        
   4636 ****        53.5000  57.0000  58.7500 Du        
   4637 ****        53.5000  57.0000  59.0000 Du        
   4638 ****        53.5000  57.0000  59.2500 Du        
   4639 ****        53.5000  57.0000  59.5000 Du        
   4640 ****        53.5000  57.0000  59.7500 Du        
   4641 ****        53.5000  57.0000  60.0000 Du        
   4642 ****        53.5000  57.0000  60.2500 Du        
   4643 ****        53.5000  57.0000  60.5000 Du        
   4644 ****        53.5000  57.0000  60.7500 Du        
   4645 ****        53.5000  57.0000  61.0000 Du        
   4646 ****        53.5000  57.0000  61.2500 Du        
   4647 ****        53.5000  57.0000  61.5000 Du        
   4648 ****        53.5000  57.0000  61.7500 Du        
   4649 ****        53.5000  57.0000  62.0000 Du        
   4650 ****        53.5000  57.0000  62.2500 Du        
   4651 ****        53.5000  57.0000  62.5000 Du        
   4652 ****        53.5000  57.0000  62.7500 Du        
   4653 ****        53.5000  57.0000  63.0000 Du        
   4654 ****        53.5000  57.0000  63.2500 Du        
   4655 ****        53.5000  57.0000  63.5000 Du        
   4656 ****        53.5000  57.2500  59.0000 Du        
   4657 ****        53.5000  57.2500  59.2500 Du        
   4658 ****        53.5000  57.2500  59.5000 Du        
   4659 ****        53.5000  57.2500  59.7500 Du        
   4660 ****        53.5000  57.2500  60.0000 Du        
   4661 ****        53.5000  57.2500  60.2500 Du        
   4662 ****        53.5000  57.2500  60.5000 Du        
   4663 ****        53.5000  57.2500  60.7500 Du        
   4664 ****        53.5000  57.2500  61.0000 Du        
   4665 ****        53.5000  57.2500  61.2500 Du        
   4666 ****        53.5000  57.2500  61.5000 Du        
   4667 ****        53.5000  57.2500  61.7500 Du        
   4668 ****        53.5000  57.2500  62.0000 Du        
   4669 ****        53.5000  57.2500  62.2500 Du        
   4670 ****        53.5000  57.2500  62.5000 Du        
   4671 ****        53.5000  57.2500  62.7500 Du        
   4672 ****        53.5000  57.2500  63.0000 Du        
   4673 ****        53.5000  57.2500  63.2500 Du        
   4674 ****        53.5000  57.2500  63.5000 Du        
   4675 ****        53.5000  57.2500  63.7500 Du        
   4676 ****        53.5000  57.2500  64.0000 Du        
   4677 ****        53.5000  57.5000  59.5000 Du        
   4678 ****        53.5000  57.5000  59.7500 Du        
   4679 ****        53.5000  57.5000  60.0000 Du        
   4680 ****        53.5000  57.5000  60.2500 Du        
   4681 ****        53.5000  57.5000  60.5000 Du        
   4682 ****        53.5000  57.5000  60.7500 Du        
   4683 ****        53.5000  57.5000  61.0000 Du        
   4684 ****        53.5000  57.5000  61.2500 Du        
   4685 ****        53.5000  57.5000  61.5000 Du        
   4686 ****        53.5000  57.5000  61.7500 Du        
   4687 ****        53.5000  57.5000  62.0000 Du        
   4688 ****        53.5000  57.5000  62.2500 Du        
   4689 ****        53.5000  57.5000  62.5000 Du        
   4690 ****        53.5000  57.5000  62.7500 Du        
   4691 ****        53.5000  57.5000  63.0000 Du        
   4692 ****        53.5000  57.5000  63.2500 Du        
   4693 ****        53.5000  57.5000  63.5000 Du        
   4694 ****        53.5000  57.5000  63.7500 Du        
   4695 ****        53.5000  57.5000  64.0000 Du        
   4696 ****        53.5000  57.5000  64.2500 Du        
   4697 ****        53.5000  57.7500  60.0000 Du        
   4698 ****        53.5000  57.7500  60.2500 Du        
   4699 ****        53.5000  57.7500  60.5000 Du        
   4700 ****        53.5000  57.7500  60.7500 Du        
   4701 ****        53.5000  57.7500  61.0000 Du        
   4702 ****        53.5000  57.7500  61.2500 Du        
   4703 ****        53.5000  57.7500  61.5000 Du        
   4704 ****        53.5000  57.7500  61.7500 Du        
   4705 ****        53.5000  57.7500  62.0000 Du        
   4706 ****        53.5000  57.7500  62.2500 Du        
   4707 ****        53.5000  57.7500  62.5000 Du        
   4708 ****        53.5000  57.7500  62.7500 Du        
   4709 ****        53.5000  57.7500  63.0000 Du        
   4710 ****        53.5000  57.7500  63.2500 Du        
   4711 ****        53.5000  57.7500  63.5000 Du        
   4712 ****        53.5000  57.7500  63.7500 Du        
   4713 ****        53.5000  57.7500  64.0000 Du        
   4714 ****        53.5000  57.7500  64.2500 Du        
   4715 ****        53.5000  58.0000  60.5000 Du        
   4716 ****        53.5000  58.0000  60.7500 Du        
   4717 ****        53.5000  58.0000  61.0000 Du        
   4718 ****        53.5000  58.0000  61.2500 Du        
   4719 ****        53.5000  58.0000  61.5000 Du        
   4720 ****        53.5000  58.0000  61.7500 Du        
   4721 ****        53.5000  58.0000  62.0000 Du        
   4722 ****        53.5000  58.0000  62.2500 Du        
   4723 ****        53.5000  58.0000  62.5000 Du        
   4724 ****        53.5000  58.0000  62.7500 Du        
   4725 ****        53.5000  58.0000  63.0000 Du        
   4726 ****        53.5000  58.0000  63.2500 Du        
   4727 ****        53.5000  58.0000  63.5000 Du        
   4728 ****        53.5000  58.0000  63.7500 Du        
   4729 ****        53.5000  58.0000  64.0000 Du        
   4730 ****        53.5000  58.0000  64.2500 Du        
   4731 ****        53.5000  58.2500  61.0000 Du        
   4732 ****        53.5000  58.2500  61.2500 Du        
   4733 ****        53.5000  58.2500  61.5000 Du        
   4734 ****        53.5000  58.2500  61.7500 Du        
   4735 ****        53.5000  58.2500  62.0000 Du        
   4736 ****        53.5000  58.2500  62.2500 Du        
   4737 ****        53.5000  58.2500  62.5000 Du        
   4738 ****        53.5000  58.2500  62.7500 Du        
   4739 ****        53.5000  58.2500  63.0000 Du        
   4740 ****        53.5000  58.2500  63.2500 Du        
   4741 ****        53.5000  58.2500  63.5000 Du        
   4742 ****        53.5000  58.2500  63.7500 Du        
   4743 ****        53.5000  58.2500  64.0000 Du        
   4744 ****        53.5000  58.2500  64.2500 Du        
   4745 ****        53.5000  58.2500  64.5000 Du        
   4746 ****        53.5000  58.5000  62.2500 Du        
   4747 ****        53.5000  58.5000  62.5000 Du        
   4748 ****        53.5000  58.5000  62.7500 Du        
   4749 ****        53.5000  58.5000  63.0000 Du        
   4750 ****        53.5000  58.5000  63.2500 Du        
   4751 ****        53.5000  58.5000  63.5000 Du        
   4752 ****        53.5000  58.5000  63.7500 Du        
   4753 ****        53.5000  58.5000  64.0000 Du        
   4754 ****        53.5000  58.5000  64.2500 Du        
   4755 ****        53.5000  58.7500  63.0000 Du        
   4756 ****        53.5000  58.7500  63.2500 Du        
   4757 ****        53.5000  58.7500  63.5000 Du        
   4758 ****        53.5000  58.7500  63.7500 Du        
   4759 ****        53.5000  58.7500  64.0000 Du        
   4760 ****        53.5000  58.7500  64.2500 Du        
   4761 ****        53.5000  59.0000  63.2500 Du        
   4762 ****        53.5000  59.0000  63.5000 Du        
   4763 ****        53.5000  59.0000  63.7500 Du        
   4764 ****        53.5000  59.0000  64.0000 Du        
   4765 ****        53.5000  69.5000  47.5000 Du        
   4766 ****        53.5000  69.5000  47.7500 Du        
   4767 ****        53.5000  69.7500  47.2500 Du        
   4768 ****        53.5000  69.7500  47.5000 Du        
   4769 ****        53.5000  69.7500  47.7500 Du        
   4770 ****        53.5000  69.7500  48.0000 Du        
   4771 ****        53.5000  70.0000  47.2500 Du        
   4772 ****        53.5000  70.0000  47.5000 Du        
   4773 ****        53.5000  70.0000  47.7500 Du        
   4774 ****        53.5000  70.0000  48.0000 Du        
   4775 ****        53.5000  70.0000  48.2500 Du        
   4776 ****        53.5000  70.2500  47.2500 Du        
   4777 ****        53.5000  70.2500  47.5000 Du        
   4778 ****        53.5000  70.2500  47.7500 Du        
   4779 ****        53.5000  70.2500  48.0000 Du        
   4780 ****        53.5000  70.2500  48.2500 Du        
   4781 ****        53.5000  70.5000  47.0000 Du        
   4782 ****        53.5000  70.5000  47.2500 Du        
   4783 ****        53.5000  70.5000  47.5000 Du        
   4784 ****        53.5000  70.5000  47.7500 Du        
   4785 ****        53.5000  70.5000  48.0000 Du        
   4786 ****        53.5000  70.5000  48.2500 Du        
   4787 ****        53.5000  70.5000  48.5000 Du        
   4788 ****        53.5000  70.7500  47.0000 Du        
   4789 ****        53.5000  70.7500  47.2500 Du        
   4790 ****        53.5000  70.7500  47.5000 Du        
   4791 ****        53.5000  70.7500  47.7500 Du        
   4792 ****        53.5000  70.7500  48.0000 Du        
   4793 ****        53.5000  70.7500  48.2500 Du        
   4794 ****        53.5000  70.7500  48.5000 Du        
   4795 ****        53.5000  71.0000  46.7500 Du        
   4796 ****        53.5000  71.0000  47.0000 Du        
   4797 ****        53.5000  71.0000  47.2500 Du        
   4798 ****        53.5000  71.0000  47.5000 Du        
   4799 ****        53.5000  71.0000  47.7500 Du        
   4800 ****        53.5000  71.0000  48.0000 Du        
   4801 ****        53.5000  71.0000  48.2500 Du        
   4802 ****        53.5000  71.2500  46.7500 Du        
   4803 ****        53.5000  71.2500  47.0000 Du        
   4804 ****        53.5000  71.2500  47.2500 Du        
   4805 ****        53.5000  71.2500  47.5000 Du        
   4806 ****        53.5000  71.2500  47.7500 Du        
   4807 ****        53.5000  71.2500  48.0000 Du        
   4808 ****        53.5000  71.2500  48.2500 Du        
   4809 ****        53.5000  71.5000  46.5000 Du        
   4810 ****        53.5000  71.5000  46.7500 Du        
   4811 ****        53.5000  71.5000  47.0000 Du        
   4812 ****        53.5000  71.5000  47.2500 Du        
   4813 ****        53.5000  71.5000  47.5000 Du        
   4814 ****        53.5000  71.5000  47.7500 Du        
   4815 ****        53.5000  71.5000  48.0000 Du        
   4816 ****        53.5000  71.7500  46.5000 Du        
   4817 ****        53.5000  71.7500  46.7500 Du        
   4818 ****        53.5000  71.7500  47.0000 Du        
   4819 ****        53.5000  71.7500  47.2500 Du        
   4820 ****        53.5000  71.7500  47.5000 Du        
   4821 ****        53.5000  71.7500  47.7500 Du        
   4822 ****        53.5000  71.7500  48.0000 Du        
   4823 ****        53.5000  72.0000  46.5000 Du        
   4824 ****        53.5000  72.0000  46.7500 Du        
   4825 ****        53.5000  72.0000  47.0000 Du        
   4826 ****        53.5000  72.0000  47.2500 Du        
   4827 ****        53.5000  72.0000  47.5000 Du        
   4828 ****        53.5000  72.0000  47.7500 Du        
   4829 ****        53.5000  72.2500  46.5000 Du        
   4830 ****        53.5000  72.2500  46.7500 Du        
   4831 ****        53.5000  72.2500  47.0000 Du        
   4832 ****        53.5000  72.2500  47.2500 Du        
   4833 ****        53.5000  72.2500  47.5000 Du        
   4834 ****        53.5000  72.2500  47.7500 Du        
   4835 ****        53.5000  72.5000  46.7500 Du        
   4836 ****        53.5000  72.5000  47.0000 Du        
   4837 ****        53.5000  72.5000  47.2500 Du        
   4838 ****        53.5000  72.5000  47.5000 Du        
   4839 ****        53.5000  72.7500  47.0000 Du        
   4840 ****        53.5000  72.7500  47.2500 Du        
   4841 ****        53.5000  72.7500  47.5000 Du        
   4842 ****        53.5000  73.0000  47.0000 Du        
   4843 ****        53.7500  55.2500  55.2500 Du        
   4844 ****        53.7500  55.2500  55.5000 Du        
   4845 ****        53.7500  55.2500  55.7500 Du        
   4846 ****        53.7500  55.2500  56.0000 Du        
   4847 ****        53.7500  55.2500  56.2500 Du        
   4848 ****        53.7500  55.5000  55.0000 Du        
   4849 ****        53.7500  55.5000  55.2500 Du        
   4850 ****        53.7500  55.5000  55.5000 Du        
   4851 ****        53.7500  55.5000  55.7500 Du        
   4852 ****        53.7500  55.5000  56.0000 Du        
   4853 ****        53.7500  55.5000  56.2500 Du        
   4854 ****        53.7500  55.5000  56.5000 Du        
   4855 ****        53.7500  55.7500  55.0000 Du        
   4856 ****        53.7500  55.7500  55.2500 Du        
   4857 ****        53.7500  55.7500  55.5000 Du        
   4858 ****        53.7500  55.7500  55.7500 Du        
   4859 ****        53.7500  55.7500  56.0000 Du        
   4860 ****        53.7500  55.7500  56.2500 Du        
   4861 ****        53.7500  55.7500  56.5000 Du        
   4862 ****        53.7500  55.7500  56.7500 Du        
   4863 ****        53.7500  55.7500  57.0000 Du        
   4864 ****        53.7500  56.0000  54.7500 Du        
   4865 ****        53.7500  56.0000  55.0000 Du        
   4866 ****        53.7500  56.0000  55.2500 Du        
   4867 ****        53.7500  56.0000  55.5000 Du        
   4868 ****        53.7500  56.0000  55.7500 Du        
   4869 ****        53.7500  56.0000  56.0000 Du        
   4870 ****        53.7500  56.0000  56.2500 Du        
   4871 ****        53.7500  56.0000  56.5000 Du        
   4872 ****        53.7500  56.0000  56.7500 Du        
   4873 ****        53.7500  56.0000  57.0000 Du        
   4874 ****        53.7500  56.0000  57.2500 Du        
   4875 ****        53.7500  56.2500  54.7500 Du        
   4876 ****        53.7500  56.2500  55.0000 Du        
   4877 ****        53.7500  56.2500  55.2500 Du        
   4878 ****        53.7500  56.2500  55.5000 Du        
   4879 ****        53.7500  56.2500  55.7500 Du        
   4880 ****        53.7500  56.2500  56.0000 Du        
   4881 ****        53.7500  56.2500  56.2500 Du        
   4882 ****        53.7500  56.2500  56.5000 Du        
   4883 ****        53.7500  56.2500  56.7500 Du        
   4884 ****        53.7500  56.2500  57.0000 Du        
   4885 ****        53.7500  56.2500  57.2500 Du        
   4886 ****        53.7500  56.2500  57.5000 Du        
   4887 ****        53.7500  56.2500  57.7500 Du        
   4888 ****        53.7500  56.2500  58.0000 Du        
   4889 ****        53.7500  56.2500  58.2500 Du        
   4890 ****        53.7500  56.2500  62.2500 Du        
   4891 ****        53.7500  56.5000  54.5000 Du        
   4892 ****        53.7500  56.5000  54.7500 Du        
   4893 ****        53.7500  56.5000  55.0000 Du        
   4894 ****        53.7500  56.5000  55.2500 Du        
   4895 ****        53.7500  56.5000  55.5000 Du        
   4896 ****        53.7500  56.5000  55.7500 Du        
   4897 ****        53.7500  56.5000  56.0000 Du        
   4898 ****        53.7500  56.5000  56.2500 Du        
   4899 ****        53.7500  56.5000  56.5000 Du        
   4900 ****        53.7500  56.5000  56.7500 Du        
   4901 ****        53.7500  56.5000  57.0000 Du        
   4902 ****        53.7500  56.5000  57.2500 Du        
   4903 ****        53.7500  56.5000  57.5000 Du        
   4904 ****        53.7500  56.5000  57.7500 Du        
   4905 ****        53.7500  56.5000  58.0000 Du        
   4906 ****        53.7500  56.5000  58.2500 Du        
   4907 ****        53.7500  56.5000  58.5000 Du        
   4908 ****        53.7500  56.5000  58.7500 Du        
   4909 ****        53.7500  56.5000  59.0000 Du        
   4910 ****        53.7500  56.5000  59.2500 Du        
   4911 ****        53.7500  56.5000  61.5000 Du        
   4912 ****        53.7500  56.5000  61.7500 Du        
   4913 ****        53.7500  56.5000  62.0000 Du        
   4914 ****        53.7500  56.5000  62.2500 Du        
   4915 ****        53.7500  56.5000  62.5000 Du        
   4916 ****        53.7500  56.5000  62.7500 Du        
   4917 ****        53.7500  56.7500  54.5000 Du        
   4918 ****        53.7500  56.7500  54.7500 Du        
   4919 ****        53.7500  56.7500  55.0000 Du        
   4920 ****        53.7500  56.7500  55.2500 Du        
   4921 ****        53.7500  56.7500  55.5000 Du        
   4922 ****        53.7500  56.7500  55.7500 Du        
   4923 ****        53.7500  56.7500  56.0000 Du        
   4924 ****        53.7500  56.7500  56.2500 Du        
   4925 ****        53.7500  56.7500  56.5000 Du        
   4926 ****        53.7500  56.7500  56.7500 Du        
   4927 ****        53.7500  56.7500  57.0000 Du        
   4928 ****        53.7500  56.7500  57.2500 Du        
   4929 ****        53.7500  56.7500  57.5000 Du        
   4930 ****        53.7500  56.7500  57.7500 Du        
   4931 ****        53.7500  56.7500  58.0000 Du        
   4932 ****        53.7500  56.7500  58.2500 Du        
   4933 ****        53.7500  56.7500  58.5000 Du        
   4934 ****        53.7500  56.7500  58.7500 Du        
   4935 ****        53.7500  56.7500  59.0000 Du        
   4936 ****        53.7500  56.7500  59.2500 Du        
   4937 ****        53.7500  56.7500  59.5000 Du        
   4938 ****        53.7500  56.7500  59.7500 Du        
   4939 ****        53.7500  56.7500  60.0000 Du        
   4940 ****        53.7500  56.7500  60.2500 Du        
   4941 ****        53.7500  56.7500  60.5000 Du        
   4942 ****        53.7500  56.7500  60.7500 Du        
   4943 ****        53.7500  56.7500  61.0000 Du        
   4944 ****        53.7500  56.7500  61.2500 Du        
   4945 ****        53.7500  56.7500  61.5000 Du        
   4946 ****        53.7500  56.7500  61.7500 Du        
   4947 ****        53.7500  56.7500  62.0000 Du        
   4948 ****        53.7500  56.7500  62.2500 Du        
   4949 ****        53.7500  56.7500  62.5000 Du        
   4950 ****        53.7500  56.7500  62.7500 Du        
   4951 ****        53.7500  56.7500  63.0000 Du        
   4952 ****        53.7500  57.0000  55.5000 Du        
   4953 ****        53.7500  57.0000  55.7500 Du        
   4954 ****        53.7500  57.0000  57.5000 Du        
   4955 ****        53.7500  57.0000  57.7500 Du        
   4956 ****        53.7500  57.0000  58.0000 Du        
   4957 ****        53.7500  57.0000  58.2500 Du        
   4958 ****        53.7500  57.0000  58.5000 Du        
   4959 ****        53.7500  57.0000  58.7500 Du        
   4960 ****        53.7500  57.0000  59.0000 Du        
   4961 ****        53.7500  57.0000  59.2500 Du        
   4962 ****        53.7500  57.0000  59.5000 Du        
   4963 ****        53.7500  57.0000  59.7500 Du        
   4964 ****        53.7500  57.0000  60.0000 Du        
   4965 ****        53.7500  57.0000  60.2500 Du        
   4966 ****        53.7500  57.0000  60.5000 Du        
   4967 ****        53.7500  57.0000  60.7500 Du        
   4968 ****        53.7500  57.0000  61.0000 Du        
   4969 ****        53.7500  57.0000  61.2500 Du        
   4970 ****        53.7500  57.0000  61.5000 Du        
   4971 ****        53.7500  57.0000  61.7500 Du        
   4972 ****        53.7500  57.0000  62.0000 Du        
   4973 ****        53.7500  57.0000  62.2500 Du        
   4974 ****        53.7500  57.0000  62.5000 Du        
   4975 ****        53.7500  57.0000  62.7500 Du        
   4976 ****        53.7500  57.0000  63.0000 Du        
   4977 ****        53.7500  57.0000  63.2500 Du        
   4978 ****        53.7500  57.0000  63.5000 Du        
   4979 ****        53.7500  57.2500  58.2500 Du        
   4980 ****        53.7500  57.2500  58.5000 Du        
   4981 ****        53.7500  57.2500  58.7500 Du        
   4982 ****        53.7500  57.2500  59.0000 Du        
   4983 ****        53.7500  57.2500  59.2500 Du        
   4984 ****        53.7500  57.2500  59.5000 Du        
   4985 ****        53.7500  57.2500  59.7500 Du        
   4986 ****        53.7500  57.2500  60.0000 Du        
   4987 ****        53.7500  57.2500  60.2500 Du        
   4988 ****        53.7500  57.2500  60.5000 Du        
   4989 ****        53.7500  57.2500  60.7500 Du        
   4990 ****        53.7500  57.2500  61.0000 Du        
   4991 ****        53.7500  57.2500  61.2500 Du        
   4992 ****        53.7500  57.2500  61.5000 Du        
   4993 ****        53.7500  57.2500  61.7500 Du        
   4994 ****        53.7500  57.2500  62.0000 Du        
   4995 ****        53.7500  57.2500  62.2500 Du        
   4996 ****        53.7500  57.2500  62.5000 Du        
   4997 ****        53.7500  57.2500  62.7500 Du        
   4998 ****        53.7500  57.2500  63.0000 Du        
   4999 ****        53.7500  57.2500  63.2500 Du        
   5000 ****        53.7500  57.2500  63.5000 Du        
   5001 ****        53.7500  57.2500  63.7500 Du        
   5002 ****        53.7500  57.5000  59.5000 Du        
   5003 ****        53.7500  57.5000  59.7500 Du        
   5004 ****        53.7500  57.5000  60.0000 Du        
   5005 ****        53.7500  57.5000  60.2500 Du        
   5006 ****        53.7500  57.5000  60.5000 Du        
   5007 ****        53.7500  57.5000  60.7500 Du        
   5008 ****        53.7500  57.5000  61.0000 Du        
   5009 ****        53.7500  57.5000  61.2500 Du        
   5010 ****        53.7500  57.5000  61.5000 Du        
   5011 ****        53.7500  57.5000  61.7500 Du        
   5012 ****        53.7500  57.5000  62.0000 Du        
   5013 ****        53.7500  57.5000  62.2500 Du        
   5014 ****        53.7500  57.5000  62.5000 Du        
   5015 ****        53.7500  57.5000  62.7500 Du        
   5016 ****        53.7500  57.5000  63.0000 Du        
   5017 ****        53.7500  57.5000  63.2500 Du        
   5018 ****        53.7500  57.5000  63.5000 Du        
   5019 ****        53.7500  57.5000  63.7500 Du        
   5020 ****        53.7500  57.5000  64.0000 Du        
   5021 ****        53.7500  57.7500  60.0000 Du        
   5022 ****        53.7500  57.7500  60.2500 Du        
   5023 ****        53.7500  57.7500  60.5000 Du        
   5024 ****        53.7500  57.7500  60.7500 Du        
   5025 ****        53.7500  57.7500  61.0000 Du        
   5026 ****        53.7500  57.7500  61.2500 Du        
   5027 ****        53.7500  57.7500  61.5000 Du        
   5028 ****        53.7500  57.7500  61.7500 Du        
   5029 ****        53.7500  57.7500  62.0000 Du        
   5030 ****        53.7500  57.7500  62.2500 Du        
   5031 ****        53.7500  57.7500  62.5000 Du        
   5032 ****        53.7500  57.7500  62.7500 Du        
   5033 ****        53.7500  57.7500  63.0000 Du        
   5034 ****        53.7500  57.7500  63.2500 Du        
   5035 ****        53.7500  57.7500  63.5000 Du        
   5036 ****        53.7500  57.7500  63.7500 Du        
   5037 ****        53.7500  57.7500  64.0000 Du        
   5038 ****        53.7500  57.7500  64.2500 Du        
   5039 ****        53.7500  58.0000  60.5000 Du        
   5040 ****        53.7500  58.0000  60.7500 Du        
   5041 ****        53.7500  58.0000  61.0000 Du        
   5042 ****        53.7500  58.0000  61.2500 Du        
   5043 ****        53.7500  58.0000  61.5000 Du        
   5044 ****        53.7500  58.0000  61.7500 Du        
   5045 ****        53.7500  58.0000  62.0000 Du        
   5046 ****        53.7500  58.0000  62.2500 Du        
   5047 ****        53.7500  58.0000  62.5000 Du        
   5048 ****        53.7500  58.0000  62.7500 Du        
   5049 ****        53.7500  58.0000  63.0000 Du        
   5050 ****        53.7500  58.0000  63.2500 Du        
   5051 ****        53.7500  58.0000  63.5000 Du        
   5052 ****        53.7500  58.0000  63.7500 Du        
   5053 ****        53.7500  58.0000  64.0000 Du        
   5054 ****        53.7500  58.0000  64.2500 Du        
   5055 ****        53.7500  58.2500  60.7500 Du        
   5056 ****        53.7500  58.2500  61.0000 Du        
   5057 ****        53.7500  58.2500  61.2500 Du        
   5058 ****        53.7500  58.2500  61.5000 Du        
   5059 ****        53.7500  58.2500  61.7500 Du        
   5060 ****        53.7500  58.2500  62.0000 Du        
   5061 ****        53.7500  58.2500  62.2500 Du        
   5062 ****        53.7500  58.2500  62.5000 Du        
   5063 ****        53.7500  58.2500  62.7500 Du        
   5064 ****        53.7500  58.2500  63.0000 Du        
   5065 ****        53.7500  58.2500  63.2500 Du        
   5066 ****        53.7500  58.2500  63.5000 Du        
   5067 ****        53.7500  58.2500  63.7500 Du        
   5068 ****        53.7500  58.2500  64.0000 Du        
   5069 ****        53.7500  58.2500  64.2500 Du        
   5070 ****        53.7500  58.5000  61.5000 Du        
   5071 ****        53.7500  58.5000  61.7500 Du        
   5072 ****        53.7500  58.5000  62.0000 Du        
   5073 ****        53.7500  58.5000  62.2500 Du        
   5074 ****        53.7500  58.5000  62.5000 Du        
   5075 ****        53.7500  58.5000  62.7500 Du        
   5076 ****        53.7500  58.5000  63.0000 Du        
   5077 ****        53.7500  58.5000  63.2500 Du        
   5078 ****        53.7500  58.5000  63.5000 Du        
   5079 ****        53.7500  58.5000  63.7500 Du        
   5080 ****        53.7500  58.5000  64.0000 Du        
   5081 ****        53.7500  58.5000  64.2500 Du        
   5082 ****        53.7500  58.7500  62.5000 Du        
   5083 ****        53.7500  58.7500  62.7500 Du        
   5084 ****        53.7500  58.7500  63.0000 Du        
   5085 ****        53.7500  58.7500  63.2500 Du        
   5086 ****        53.7500  58.7500  63.5000 Du        
   5087 ****        53.7500  58.7500  63.7500 Du        
   5088 ****        53.7500  58.7500  64.0000 Du        
   5089 ****        53.7500  59.0000  63.0000 Du        
   5090 ****        53.7500  59.0000  63.2500 Du        
   5091 ****        53.7500  59.0000  63.5000 Du        
   5092 ****        53.7500  59.0000  63.7500 Du        
   5093 ****        53.7500  59.0000  64.0000 Du        
   5094 ****        53.7500  69.7500  47.5000 Du        
   5095 ****        53.7500  69.7500  47.7500 Du        
   5096 ****        53.7500  69.7500  48.0000 Du        
   5097 ****        53.7500  70.0000  47.2500 Du        
   5098 ****        53.7500  70.0000  47.5000 Du        
   5099 ****        53.7500  70.0000  47.7500 Du        
   5100 ****        53.7500  70.0000  48.0000 Du        
   5101 ****        53.7500  70.0000  48.2500 Du        
   5102 ****        53.7500  70.2500  47.2500 Du        
   5103 ****        53.7500  70.2500  47.5000 Du        
   5104 ****        53.7500  70.2500  47.7500 Du        
   5105 ****        53.7500  70.2500  48.0000 Du        
   5106 ****        53.7500  70.2500  48.2500 Du        
   5107 ****        53.7500  70.5000  47.2500 Du        
   5108 ****        53.7500  70.5000  47.5000 Du        
   5109 ****        53.7500  70.5000  47.7500 Du        
   5110 ****        53.7500  70.5000  48.0000 Du        
   5111 ****        53.7500  70.5000  48.2500 Du        
   5112 ****        53.7500  70.5000  48.5000 Du        
   5113 ****        53.7500  70.7500  47.0000 Du        
   5114 ****        53.7500  70.7500  47.2500 Du        
   5115 ****        53.7500  70.7500  47.5000 Du        
   5116 ****        53.7500  70.7500  47.7500 Du        
   5117 ****        53.7500  70.7500  48.0000 Du        
   5118 ****        53.7500  70.7500  48.2500 Du        
   5119 ****        53.7500  70.7500  48.5000 Du        
   5120 ****        53.7500  71.0000  46.7500 Du        
   5121 ****        53.7500  71.0000  47.0000 Du        
   5122 ****        53.7500  71.0000  47.2500 Du        
   5123 ****        53.7500  71.0000  47.5000 Du        
   5124 ****        53.7500  71.0000  47.7500 Du        
   5125 ****        53.7500  71.0000  48.0000 Du        
   5126 ****        53.7500  71.0000  48.2500 Du        
   5127 ****        53.7500  71.2500  46.7500 Du        
   5128 ****        53.7500  71.2500  47.0000 Du        
   5129 ****        53.7500  71.2500  47.2500 Du        
   5130 ****        53.7500  71.2500  47.5000 Du        
   5131 ****        53.7500  71.2500  47.7500 Du        
   5132 ****        53.7500  71.2500  48.0000 Du        
   5133 ****        53.7500  71.2500  48.2500 Du        
   5134 ****        53.7500  71.5000  46.5000 Du        
   5135 ****        53.7500  71.5000  46.7500 Du        
   5136 ****        53.7500  71.5000  47.0000 Du        
   5137 ****        53.7500  71.5000  47.2500 Du        
   5138 ****        53.7500  71.5000  47.5000 Du        
   5139 ****        53.7500  71.5000  47.7500 Du        
   5140 ****        53.7500  71.5000  48.0000 Du        
   5141 ****        53.7500  71.7500  46.2500 Du        
   5142 ****        53.7500  71.7500  46.5000 Du        
   5143 ****        53.7500  71.7500  46.7500 Du        
   5144 ****        53.7500  71.7500  47.0000 Du        
   5145 ****        53.7500  71.7500  47.2500 Du        
   5146 ****        53.7500  71.7500  47.5000 Du        
   5147 ****        53.7500  71.7500  47.7500 Du        
   5148 ****        53.7500  71.7500  48.0000 Du        
   5149 ****        53.7500  72.0000  46.2500 Du        
   5150 ****        53.7500  72.0000  46.5000 Du        
   5151 ****        53.7500  72.0000  46.7500 Du        
   5152 ****        53.7500  72.0000  47.0000 Du        
   5153 ****        53.7500  72.0000  47.2500 Du        
   5154 ****        53.7500  72.0000  47.5000 Du        
   5155 ****        53.7500  72.0000  47.7500 Du        
   5156 ****        53.7500  72.2500  46.0000 Du        
   5157 ****        53.7500  72.2500  46.2500 Du        
   5158 ****        53.7500  72.2500  46.5000 Du        
   5159 ****        53.7500  72.2500  46.7500 Du        
   5160 ****        53.7500  72.2500  47.0000 Du        
   5161 ****        53.7500  72.2500  47.2500 Du        
   5162 ****        53.7500  72.2500  47.5000 Du        
   5163 ****        53.7500  72.2500  47.7500 Du        
   5164 ****        53.7500  72.5000  45.7500 Du        
   5165 ****        53.7500  72.5000  46.0000 Du        
   5166 ****        53.7500  72.5000  46.2500 Du        
   5167 ****        53.7500  72.5000  46.5000 Du        
   5168 ****        53.7500  72.5000  46.7500 Du        
   5169 ****        53.7500  72.5000  47.0000 Du        
   5170 ****        53.7500  72.5000  47.2500 Du        
   5171 ****        53.7500  72.5000  47.5000 Du        
   5172 ****        53.7500  72.7500  45.7500 Du        
   5173 ****        53.7500  72.7500  46.0000 Du        
   5174 ****        53.7500  72.7500  46.2500 Du        
   5175 ****        53.7500  72.7500  46.5000 Du        
   5176 ****        53.7500  72.7500  46.7500 Du        
   5177 ****        53.7500  72.7500  47.0000 Du        
   5178 ****        53.7500  72.7500  47.2500 Du        
   5179 ****        53.7500  72.7500  47.5000 Du        
   5180 ****        53.7500  73.0000  45.7500 Du        
   5181 ****        53.7500  73.0000  46.0000 Du        
   5182 ****        53.7500  73.0000  46.2500 Du        
   5183 ****        53.7500  73.0000  46.5000 Du        
   5184 ****        53.7500  73.0000  46.7500 Du        
   5185 ****        53.7500  73.0000  47.0000 Du        
   5186 ****        53.7500  73.0000  47.2500 Du        
   5187 ****        53.7500  73.2500  46.2500 Du        
   5188 ****        53.7500  73.2500  46.5000 Du        
   5189 ****        53.7500  73.2500  46.7500 Du        
   5190 ****        53.7500  73.2500  47.0000 Du        
   5191 ****        53.7500  74.0000  47.0000 Du        
   5192 ****        53.7500  74.2500  46.7500 Du        
   5193 ****        54.0000  48.0000  66.5000 Du        
   5194 ****        54.0000  48.2500  66.7500 Du        
   5195 ****        54.0000  48.5000  66.7500 Du        
   5196 ****        54.0000  48.7500  66.7500 Du        
   5197 ****        54.0000  49.0000  66.7500 Du        
   5198 ****        54.0000  55.2500  55.5000 Du        
   5199 ****        54.0000  55.2500  55.7500 Du        
   5200 ****        54.0000  55.2500  56.0000 Du        
   5201 ****        54.0000  55.5000  55.2500 Du        
   5202 ****        54.0000  55.5000  55.5000 Du        
   5203 ****        54.0000  55.5000  55.7500 Du        
   5204 ****        54.0000  55.5000  56.0000 Du        
   5205 ****        54.0000  55.5000  56.2500 Du        
   5206 ****        54.0000  55.5000  56.5000 Du        
   5207 ****        54.0000  55.7500  55.0000 Du        
   5208 ****        54.0000  55.7500  55.2500 Du        
   5209 ****        54.0000  55.7500  55.5000 Du        
   5210 ****        54.0000  55.7500  55.7500 Du        
   5211 ****        54.0000  55.7500  56.0000 Du        
   5212 ****        54.0000  55.7500  56.2500 Du        
   5213 ****        54.0000  55.7500  56.5000 Du        
   5214 ****        54.0000  55.7500  56.7500 Du        
   5215 ****        54.0000  55.7500  57.0000 Du        
   5216 ****        54.0000  56.0000  55.0000 Du        
   5217 ****        54.0000  56.0000  55.2500 Du        
   5218 ****        54.0000  56.0000  55.5000 Du        
   5219 ****        54.0000  56.0000  55.7500 Du        
   5220 ****        54.0000  56.0000  56.0000 Du        
   5221 ****        54.0000  56.0000  56.2500 Du        
   5222 ****        54.0000  56.0000  56.5000 Du        
   5223 ****        54.0000  56.0000  56.7500 Du        
   5224 ****        54.0000  56.0000  57.0000 Du        
   5225 ****        54.0000  56.0000  57.2500 Du        
   5226 ****        54.0000  56.0000  57.5000 Du        
   5227 ****        54.0000  56.2500  54.7500 Du        
   5228 ****        54.0000  56.2500  55.0000 Du        
   5229 ****        54.0000  56.2500  55.2500 Du        
   5230 ****        54.0000  56.2500  55.5000 Du        
   5231 ****        54.0000  56.2500  55.7500 Du        
   5232 ****        54.0000  56.2500  56.0000 Du        
   5233 ****        54.0000  56.2500  56.2500 Du        
   5234 ****        54.0000  56.2500  56.5000 Du        
   5235 ****        54.0000  56.2500  56.7500 Du        
   5236 ****        54.0000  56.2500  57.0000 Du        
   5237 ****        54.0000  56.2500  57.2500 Du        
   5238 ****        54.0000  56.2500  57.5000 Du        
   5239 ****        54.0000  56.2500  57.7500 Du        
   5240 ****        54.0000  56.2500  58.0000 Du        
   5241 ****        54.0000  56.2500  58.2500 Du        
   5242 ****        54.0000  56.5000  54.7500 Du        
   5243 ****        54.0000  56.5000  55.0000 Du        
   5244 ****        54.0000  56.5000  55.2500 Du        
   5245 ****        54.0000  56.5000  55.5000 Du        
   5246 ****        54.0000  56.5000  55.7500 Du        
   5247 ****        54.0000  56.5000  56.0000 Du        
   5248 ****        54.0000  56.5000  56.2500 Du        
   5249 ****        54.0000  56.5000  56.5000 Du        
   5250 ****        54.0000  56.5000  56.7500 Du        
   5251 ****        54.0000  56.5000  57.0000 Du        
   5252 ****        54.0000  56.5000  57.2500 Du        
   5253 ****        54.0000  56.5000  57.5000 Du        
   5254 ****        54.0000  56.5000  57.7500 Du        
   5255 ****        54.0000  56.5000  58.0000 Du        
   5256 ****        54.0000  56.5000  58.2500 Du        
   5257 ****        54.0000  56.5000  58.5000 Du        
   5258 ****        54.0000  56.5000  58.7500 Du        
   5259 ****        54.0000  56.5000  59.0000 Du        
   5260 ****        54.0000  56.5000  62.0000 Du        
   5261 ****        54.0000  56.5000  62.2500 Du        
   5262 ****        54.0000  56.5000  62.5000 Du        
   5263 ****        54.0000  56.7500  54.7500 Du        
   5264 ****        54.0000  56.7500  55.0000 Du        
   5265 ****        54.0000  56.7500  55.2500 Du        
   5266 ****        54.0000  56.7500  55.5000 Du        
   5267 ****        54.0000  56.7500  55.7500 Du        
   5268 ****        54.0000  56.7500  56.0000 Du        
   5269 ****        54.0000  56.7500  56.2500 Du        
   5270 ****        54.0000  56.7500  56.5000 Du        
   5271 ****        54.0000  56.7500  56.7500 Du        
   5272 ****        54.0000  56.7500  57.0000 Du        
   5273 ****        54.0000  56.7500  57.2500 Du        
   5274 ****        54.0000  56.7500  57.5000 Du        
   5275 ****        54.0000  56.7500  57.7500 Du        
   5276 ****        54.0000  56.7500  58.0000 Du        
   5277 ****        54.0000  56.7500  58.2500 Du        
   5278 ****        54.0000  56.7500  58.5000 Du        
   5279 ****        54.0000  56.7500  58.7500 Du        
   5280 ****        54.0000  56.7500  59.0000 Du        
   5281 ****        54.0000  56.7500  59.2500 Du        
   5282 ****        54.0000  56.7500  59.5000 Du        
   5283 ****        54.0000  56.7500  59.7500 Du        
   5284 ****        54.0000  56.7500  61.0000 Du        
   5285 ****        54.0000  56.7500  61.2500 Du        
   5286 ****        54.0000  56.7500  61.5000 Du        
   5287 ****        54.0000  56.7500  61.7500 Du        
   5288 ****        54.0000  56.7500  62.0000 Du        
   5289 ****        54.0000  56.7500  62.2500 Du        
   5290 ****        54.0000  56.7500  62.5000 Du        
   5291 ****        54.0000  56.7500  62.7500 Du        
   5292 ****        54.0000  57.0000  55.0000 Du        
   5293 ****        54.0000  57.0000  55.2500 Du        
   5294 ****        54.0000  57.0000  55.5000 Du        
   5295 ****        54.0000  57.0000  55.7500 Du        
   5296 ****        54.0000  57.0000  56.0000 Du        
   5297 ****        54.0000  57.0000  56.2500 Du        
   5298 ****        54.0000  57.0000  56.5000 Du        
   5299 ****        54.0000  57.0000  56.7500 Du        
   5300 ****        54.0000  57.0000  57.0000 Du        
   5301 ****        54.0000  57.0000  57.2500 Du        
   5302 ****        54.0000  57.0000  57.5000 Du        
   5303 ****        54.0000  57.0000  57.7500 Du        
   5304 ****        54.0000  57.0000  58.0000 Du        
   5305 ****        54.0000  57.0000  58.2500 Du        
   5306 ****        54.0000  57.0000  58.5000 Du        
   5307 ****        54.0000  57.0000  58.7500 Du        
   5308 ****        54.0000  57.0000  59.0000 Du        
   5309 ****        54.0000  57.0000  59.2500 Du        
   5310 ****        54.0000  57.0000  59.5000 Du        
   5311 ****        54.0000  57.0000  59.7500 Du        
   5312 ****        54.0000  57.0000  60.0000 Du        
   5313 ****        54.0000  57.0000  60.2500 Du        
   5314 ****        54.0000  57.0000  60.5000 Du        
   5315 ****        54.0000  57.0000  60.7500 Du        
   5316 ****        54.0000  57.0000  61.0000 Du        
   5317 ****        54.0000  57.0000  61.2500 Du        
   5318 ****        54.0000  57.0000  61.5000 Du        
   5319 ****        54.0000  57.0000  61.7500 Du        
   5320 ****        54.0000  57.0000  62.0000 Du        
   5321 ****        54.0000  57.0000  62.2500 Du        
   5322 ****        54.0000  57.0000  62.5000 Du        
   5323 ****        54.0000  57.0000  62.7500 Du        
   5324 ****        54.0000  57.0000  63.0000 Du        
   5325 ****        54.0000  57.2500  55.7500 Du        
   5326 ****        54.0000  57.2500  56.0000 Du        
   5327 ****        54.0000  57.2500  56.2500 Du        
   5328 ****        54.0000  57.2500  56.5000 Du        
   5329 ****        54.0000  57.2500  56.7500 Du        
   5330 ****        54.0000  57.2500  57.0000 Du        
   5331 ****        54.0000  57.2500  57.2500 Du        
   5332 ****        54.0000  57.2500  57.5000 Du        
   5333 ****        54.0000  57.2500  57.7500 Du        
   5334 ****        54.0000  57.2500  58.0000 Du        
   5335 ****        54.0000  57.2500  58.2500 Du        
   5336 ****        54.0000  57.2500  58.5000 Du        
   5337 ****        54.0000  57.2500  58.7500 Du        
   5338 ****        54.0000  57.2500  59.0000 Du        
   5339 ****        54.0000  57.2500  59.2500 Du        
   5340 ****        54.0000  57.2500  59.5000 Du        
   5341 ****        54.0000  57.2500  59.7500 Du        
   5342 ****        54.0000  57.2500  60.0000 Du        
   5343 ****        54.0000  57.2500  60.2500 Du        
   5344 ****        54.0000  57.2500  60.5000 Du        
   5345 ****        54.0000  57.2500  60.7500 Du        
   5346 ****        54.0000  57.2500  61.0000 Du        
   5347 ****        54.0000  57.2500  61.2500 Du        
   5348 ****        54.0000  57.2500  61.5000 Du        
   5349 ****        54.0000  57.2500  61.7500 Du        
   5350 ****        54.0000  57.2500  62.0000 Du        
   5351 ****        54.0000  57.2500  62.2500 Du        
   5352 ****        54.0000  57.2500  62.5000 Du        
   5353 ****        54.0000  57.2500  62.7500 Du        
   5354 ****        54.0000  57.2500  63.0000 Du        
   5355 ****        54.0000  57.2500  63.2500 Du        
   5356 ****        54.0000  57.2500  63.5000 Du        
   5357 ****        54.0000  57.5000  59.2500 Du        
   5358 ****        54.0000  57.5000  59.5000 Du        
   5359 ****        54.0000  57.5000  59.7500 Du        
   5360 ****        54.0000  57.5000  60.0000 Du        
   5361 ****        54.0000  57.5000  60.2500 Du        
   5362 ****        54.0000  57.5000  60.5000 Du        
   5363 ****        54.0000  57.5000  60.7500 Du        
   5364 ****        54.0000  57.5000  61.0000 Du        
   5365 ****        54.0000  57.5000  61.2500 Du        
   5366 ****        54.0000  57.5000  61.5000 Du        
   5367 ****        54.0000  57.5000  61.7500 Du        
   5368 ****        54.0000  57.5000  62.0000 Du        
   5369 ****        54.0000  57.5000  62.2500 Du        
   5370 ****        54.0000  57.5000  62.5000 Du        
   5371 ****        54.0000  57.5000  62.7500 Du        
   5372 ****        54.0000  57.5000  63.0000 Du        
   5373 ****        54.0000  57.5000  63.2500 Du        
   5374 ****        54.0000  57.5000  63.5000 Du        
   5375 ****        54.0000  57.5000  63.7500 Du        
   5376 ****        54.0000  57.7500  60.2500 Du        
   5377 ****        54.0000  57.7500  60.5000 Du        
   5378 ****        54.0000  57.7500  60.7500 Du        
   5379 ****        54.0000  57.7500  61.0000 Du        
   5380 ****        54.0000  57.7500  61.2500 Du        
   5381 ****        54.0000  57.7500  61.5000 Du        
   5382 ****        54.0000  57.7500  61.7500 Du        
   5383 ****        54.0000  57.7500  62.0000 Du        
   5384 ****        54.0000  57.7500  62.2500 Du        
   5385 ****        54.0000  57.7500  62.5000 Du        
   5386 ****        54.0000  57.7500  62.7500 Du        
   5387 ****        54.0000  57.7500  63.0000 Du        
   5388 ****        54.0000  57.7500  63.2500 Du        
   5389 ****        54.0000  57.7500  63.5000 Du        
   5390 ****        54.0000  57.7500  63.7500 Du        
   5391 ****        54.0000  57.7500  64.0000 Du        
   5392 ****        54.0000  58.0000  60.5000 Du        
   5393 ****        54.0000  58.0000  60.7500 Du        
   5394 ****        54.0000  58.0000  61.0000 Du        
   5395 ****        54.0000  58.0000  61.2500 Du        
   5396 ****        54.0000  58.0000  61.5000 Du        
   5397 ****        54.0000  58.0000  61.7500 Du        
   5398 ****        54.0000  58.0000  62.0000 Du        
   5399 ****        54.0000  58.0000  62.2500 Du        
   5400 ****        54.0000  58.0000  62.5000 Du        
   5401 ****        54.0000  58.0000  62.7500 Du        
   5402 ****        54.0000  58.0000  63.0000 Du        
   5403 ****        54.0000  58.0000  63.2500 Du        
   5404 ****        54.0000  58.0000  63.5000 Du        
   5405 ****        54.0000  58.0000  63.7500 Du        
   5406 ****        54.0000  58.0000  64.0000 Du        
   5407 ****        54.0000  58.2500  61.0000 Du        
   5408 ****        54.0000  58.2500  61.2500 Du        
   5409 ****        54.0000  58.2500  61.5000 Du        
   5410 ****        54.0000  58.2500  61.7500 Du        
   5411 ****        54.0000  58.2500  62.0000 Du        
   5412 ****        54.0000  58.2500  62.2500 Du        
   5413 ****        54.0000  58.2500  62.5000 Du        
   5414 ****        54.0000  58.2500  62.7500 Du        
   5415 ****        54.0000  58.2500  63.0000 Du        
   5416 ****        54.0000  58.2500  63.2500 Du        
   5417 ****        54.0000  58.2500  63.5000 Du        
   5418 ****        54.0000  58.2500  63.7500 Du        
   5419 ****        54.0000  58.2500  64.0000 Du        
   5420 ****        54.0000  58.5000  61.2500 Du        
   5421 ****        54.0000  58.5000  61.5000 Du        
   5422 ****        54.0000  58.5000  61.7500 Du        
   5423 ****        54.0000  58.5000  62.0000 Du        
   5424 ****        54.0000  58.5000  62.2500 Du        
   5425 ****        54.0000  58.5000  62.5000 Du        
   5426 ****        54.0000  58.5000  62.7500 Du        
   5427 ****        54.0000  58.5000  63.0000 Du        
   5428 ****        54.0000  58.5000  63.2500 Du        
   5429 ****        54.0000  58.5000  63.5000 Du        
   5430 ****        54.0000  58.5000  63.7500 Du        
   5431 ****        54.0000  58.5000  64.0000 Du        
   5432 ****        54.0000  58.7500  61.7500 Du        
   5433 ****        54.0000  58.7500  62.0000 Du        
   5434 ****        54.0000  58.7500  62.2500 Du        
   5435 ****        54.0000  58.7500  62.5000 Du        
   5436 ****        54.0000  58.7500  62.7500 Du        
   5437 ****        54.0000  58.7500  63.0000 Du        
   5438 ****        54.0000  58.7500  63.2500 Du        
   5439 ****        54.0000  58.7500  63.5000 Du        
   5440 ****        54.0000  58.7500  63.7500 Du        
   5441 ****        54.0000  58.7500  64.0000 Du        
   5442 ****        54.0000  59.0000  62.7500 Du        
   5443 ****        54.0000  59.0000  63.0000 Du        
   5444 ****        54.0000  59.0000  63.2500 Du        
   5445 ****        54.0000  59.0000  63.5000 Du        
   5446 ****        54.0000  59.0000  63.7500 Du        
   5447 ****        54.0000  69.7500  47.7500 Du        
   5448 ****        54.0000  70.0000  47.5000 Du        
   5449 ****        54.0000  70.0000  47.7500 Du        
   5450 ****        54.0000  70.0000  48.0000 Du        
   5451 ****        54.0000  70.2500  47.5000 Du        
   5452 ****        54.0000  70.2500  47.7500 Du        
   5453 ****        54.0000  70.2500  48.0000 Du        
   5454 ****        54.0000  70.2500  48.2500 Du        
   5455 ****        54.0000  70.5000  47.2500 Du        
   5456 ****        54.0000  70.5000  47.5000 Du        
   5457 ****        54.0000  70.5000  47.7500 Du        
   5458 ****        54.0000  70.5000  48.0000 Du        
   5459 ****        54.0000  70.5000  48.2500 Du        
   5460 ****        54.0000  70.5000  48.5000 Du        
   5461 ****        54.0000  70.7500  47.2500 Du        
   5462 ****        54.0000  70.7500  47.5000 Du        
   5463 ****        54.0000  70.7500  47.7500 Du        
   5464 ****        54.0000  70.7500  48.0000 Du        
   5465 ****        54.0000  70.7500  48.2500 Du        
   5466 ****        54.0000  71.0000  47.0000 Du        
   5467 ****        54.0000  71.0000  47.2500 Du        
   5468 ****        54.0000  71.0000  47.5000 Du        
   5469 ****        54.0000  71.0000  47.7500 Du        
   5470 ****        54.0000  71.0000  48.0000 Du        
   5471 ****        54.0000  71.0000  48.2500 Du        
   5472 ****        54.0000  71.2500  46.7500 Du        
   5473 ****        54.0000  71.2500  47.0000 Du        
   5474 ****        54.0000  71.2500  47.2500 Du        
   5475 ****        54.0000  71.2500  47.5000 Du        
   5476 ****        54.0000  71.2500  47.7500 Du        
   5477 ****        54.0000  71.2500  48.0000 Du        
   5478 ****        54.0000  71.5000  46.5000 Du        
   5479 ****        54.0000  71.5000  46.7500 Du        
   5480 ****        54.0000  71.5000  47.0000 Du        
   5481 ****        54.0000  71.5000  47.2500 Du        
   5482 ****        54.0000  71.5000  47.5000 Du        
   5483 ****        54.0000  71.5000  47.7500 Du        
   5484 ****        54.0000  71.5000  48.0000 Du        
   5485 ****        54.0000  71.7500  46.2500 Du        
   5486 ****        54.0000  71.7500  46.5000 Du        
   5487 ****        54.0000  71.7500  46.7500 Du        
   5488 ****        54.0000  71.7500  47.0000 Du        
   5489 ****        54.0000  71.7500  47.2500 Du        
   5490 ****        54.0000  71.7500  47.5000 Du        
   5491 ****        54.0000  71.7500  47.7500 Du        
   5492 ****        54.0000  72.0000  46.0000 Du        
   5493 ****        54.0000  72.0000  46.2500 Du        
   5494 ****        54.0000  72.0000  46.5000 Du        
   5495 ****        54.0000  72.0000  46.7500 Du        
   5496 ****        54.0000  72.0000  47.0000 Du        
   5497 ****        54.0000  72.0000  47.2500 Du        
   5498 ****        54.0000  72.0000  47.5000 Du        
   5499 ****        54.0000  72.0000  47.7500 Du        
   5500 ****        54.0000  72.2500  45.7500 Du        
   5501 ****        54.0000  72.2500  46.0000 Du        
   5502 ****        54.0000  72.2500  46.2500 Du        
   5503 ****        54.0000  72.2500  46.5000 Du        
   5504 ****        54.0000  72.2500  46.7500 Du        
   5505 ****        54.0000  72.2500  47.0000 Du        
   5506 ****        54.0000  72.2500  47.2500 Du        
   5507 ****        54.0000  72.2500  47.5000 Du        
   5508 ****        54.0000  72.5000  45.5000 Du        
   5509 ****        54.0000  72.5000  45.7500 Du        
   5510 ****        54.0000  72.5000  46.0000 Du        
   5511 ****        54.0000  72.5000  46.2500 Du        
   5512 ****        54.0000  72.5000  46.5000 Du        
   5513 ****        54.0000  72.5000  46.7500 Du        
   5514 ****        54.0000  72.5000  47.0000 Du        
   5515 ****        54.0000  72.5000  47.2500 Du        
   5516 ****        54.0000  72.5000  47.5000 Du        
   5517 ****        54.0000  72.7500  45.5000 Du        
   5518 ****        54.0000  72.7500  45.7500 Du        
   5519 ****        54.0000  72.7500  46.0000 Du        
   5520 ****        54.0000  72.7500  46.2500 Du        
   5521 ****        54.0000  72.7500  46.5000 Du        
   5522 ****        54.0000  72.7500  46.7500 Du        
   5523 ****        54.0000  72.7500  47.0000 Du        
   5524 ****        54.0000  72.7500  47.2500 Du        
   5525 ****        54.0000  73.0000  45.5000 Du        
   5526 ****        54.0000  73.0000  45.7500 Du        
   5527 ****        54.0000  73.0000  46.0000 Du        
   5528 ****        54.0000  73.0000  46.2500 Du        
   5529 ****        54.0000  73.0000  46.5000 Du        
   5530 ****        54.0000  73.0000  46.7500 Du        
   5531 ****        54.0000  73.0000  47.0000 Du        
   5532 ****        54.0000  73.0000  47.2500 Du        
   5533 ****        54.0000  73.2500  45.5000 Du        
   5534 ****        54.0000  73.2500  45.7500 Du        
   5535 ****        54.0000  73.2500  46.0000 Du        
   5536 ****        54.0000  73.2500  46.2500 Du        
   5537 ****        54.0000  73.2500  46.5000 Du        
   5538 ****        54.0000  73.2500  46.7500 Du        
   5539 ****        54.0000  73.2500  47.0000 Du        
   5540 ****        54.0000  73.5000  46.0000 Du        
   5541 ****        54.0000  73.5000  46.2500 Du        
   5542 ****        54.0000  73.5000  46.5000 Du        
   5543 ****        54.0000  73.5000  46.7500 Du        
   5544 ****        54.0000  73.5000  47.0000 Du        
   5545 ****        54.0000  73.7500  46.0000 Du        
   5546 ****        54.0000  73.7500  46.2500 Du        
   5547 ****        54.0000  73.7500  46.5000 Du        
   5548 ****        54.0000  73.7500  46.7500 Du        
   5549 ****        54.0000  73.7500  47.0000 Du        
   5550 ****        54.0000  74.0000  46.2500 Du        
   5551 ****        54.0000  74.0000  46.5000 Du        
   5552 ****        54.0000  74.0000  46.7500 Du        
   5553 ****        54.0000  74.2500  46.2500 Du        
   5554 ****        54.0000  74.2500  46.5000 Du        
   5555 ****        54.0000  74.2500  46.7500 Du        
   5556 ****        54.0000  78.2500  47.0000 Du        
   5557 ****        54.2500  48.0000  66.5000 Du        
   5558 ****        54.2500  48.2500  66.5000 Du        
   5559 ****        54.2500  48.2500  66.7500 Du        
   5560 ****        54.2500  48.5000  66.5000 Du        
   5561 ****        54.2500  48.5000  66.7500 Du        
   5562 ****        54.2500  48.7500  66.7500 Du        
   5563 ****        54.2500  49.0000  66.7500 Du        
   5564 ****        54.2500  55.2500  55.5000 Du        
   5565 ****        54.2500  55.2500  55.7500 Du        
   5566 ****        54.2500  55.2500  56.0000 Du        
   5567 ****        54.2500  55.5000  55.5000 Du        
   5568 ****        54.2500  55.5000  55.7500 Du        
   5569 ****        54.2500  55.5000  56.0000 Du        
   5570 ****        54.2500  55.5000  56.2500 Du        
   5571 ****        54.2500  55.5000  56.5000 Du        
   5572 ****        54.2500  55.7500  55.2500 Du        
   5573 ****        54.2500  55.7500  55.5000 Du        
   5574 ****        54.2500  55.7500  55.7500 Du        
   5575 ****        54.2500  55.7500  56.0000 Du        
   5576 ****        54.2500  55.7500  56.2500 Du        
   5577 ****        54.2500  55.7500  56.5000 Du        
   5578 ****        54.2500  55.7500  56.7500 Du        
   5579 ****        54.2500  56.0000  55.2500 Du        
   5580 ****        54.2500  56.0000  55.5000 Du        
   5581 ****        54.2500  56.0000  55.7500 Du        
   5582 ****        54.2500  56.0000  56.0000 Du        
   5583 ****        54.2500  56.0000  56.2500 Du        
   5584 ****        54.2500  56.0000  56.5000 Du        
   5585 ****        54.2500  56.0000  56.7500 Du        
   5586 ****        54.2500  56.0000  57.0000 Du        
   5587 ****        54.2500  56.0000  57.2500 Du        
   5588 ****        54.2500  56.0000  57.5000 Du        
   5589 ****        54.2500  56.2500  55.0000 Du        
   5590 ****        54.2500  56.2500  55.2500 Du        
   5591 ****        54.2500  56.2500  55.5000 Du        
   5592 ****        54.2500  56.2500  55.7500 Du        
   5593 ****        54.2500  56.2500  56.0000 Du        
   5594 ****        54.2500  56.2500  56.2500 Du        
   5595 ****        54.2500  56.2500  56.5000 Du        
   5596 ****        54.2500  56.2500  56.7500 Du        
   5597 ****        54.2500  56.2500  57.0000 Du        
   5598 ****        54.2500  56.2500  57.2500 Du        
   5599 ****        54.2500  56.2500  57.5000 Du        
   5600 ****        54.2500  56.2500  57.7500 Du        
   5601 ****        54.2500  56.2500  58.0000 Du        
   5602 ****        54.2500  56.2500  58.2500 Du        
   5603 ****        54.2500  56.5000  55.0000 Du        
   5604 ****        54.2500  56.5000  55.2500 Du        
   5605 ****        54.2500  56.5000  55.5000 Du        
   5606 ****        54.2500  56.5000  55.7500 Du        
   5607 ****        54.2500  56.5000  56.0000 Du        
   5608 ****        54.2500  56.5000  56.2500 Du        
   5609 ****        54.2500  56.5000  56.5000 Du        
   5610 ****        54.2500  56.5000  56.7500 Du        
   5611 ****        54.2500  56.5000  57.0000 Du        
   5612 ****        54.2500  56.5000  57.2500 Du        
   5613 ****        54.2500  56.5000  57.5000 Du        
   5614 ****        54.2500  56.5000  57.7500 Du        
   5615 ****        54.2500  56.5000  58.0000 Du        
   5616 ****        54.2500  56.5000  58.2500 Du        
   5617 ****        54.2500  56.5000  58.5000 Du        
   5618 ****        54.2500  56.5000  58.7500 Du        
   5619 ****        54.2500  56.7500  55.0000 Du        
   5620 ****        54.2500  56.7500  55.2500 Du        
   5621 ****        54.2500  56.7500  55.5000 Du        
   5622 ****        54.2500  56.7500  55.7500 Du        
   5623 ****        54.2500  56.7500  56.0000 Du        
   5624 ****        54.2500  56.7500  56.2500 Du        
   5625 ****        54.2500  56.7500  56.5000 Du        
   5626 ****        54.2500  56.7500  56.7500 Du        
   5627 ****        54.2500  56.7500  57.0000 Du        
   5628 ****        54.2500  56.7500  57.2500 Du        
   5629 ****        54.2500  56.7500  57.5000 Du        
   5630 ****        54.2500  56.7500  57.7500 Du        
   5631 ****        54.2500  56.7500  58.0000 Du        
   5632 ****        54.2500  56.7500  58.2500 Du        
   5633 ****        54.2500  56.7500  58.5000 Du        
   5634 ****        54.2500  56.7500  58.7500 Du        
   5635 ****        54.2500  56.7500  59.0000 Du        
   5636 ****        54.2500  56.7500  59.2500 Du        
   5637 ****        54.2500  56.7500  61.7500 Du        
   5638 ****        54.2500  56.7500  62.0000 Du        
   5639 ****        54.2500  56.7500  62.2500 Du        
   5640 ****        54.2500  57.0000  55.0000 Du        
   5641 ****        54.2500  57.0000  55.2500 Du        
   5642 ****        54.2500  57.0000  55.5000 Du        
   5643 ****        54.2500  57.0000  55.7500 Du        
   5644 ****        54.2500  57.0000  56.0000 Du        
   5645 ****        54.2500  57.0000  56.2500 Du        
   5646 ****        54.2500  57.0000  56.5000 Du        
   5647 ****        54.2500  57.0000  56.7500 Du        
   5648 ****        54.2500  57.0000  57.0000 Du        
   5649 ****        54.2500  57.0000  57.2500 Du        
   5650 ****        54.2500  57.0000  57.5000 Du        
   5651 ****        54.2500  57.0000  57.7500 Du        
   5652 ****        54.2500  57.0000  58.0000 Du        
   5653 ****        54.2500  57.0000  58.2500 Du        
   5654 ****        54.2500  57.0000  58.5000 Du        
   5655 ****        54.2500  57.0000  58.7500 Du        
   5656 ****        54.2500  57.0000  59.0000 Du        
   5657 ****        54.2500  57.0000  59.2500 Du        
   5658 ****        54.2500  57.0000  59.5000 Du        
   5659 ****        54.2500  57.0000  59.7500 Du        
   5660 ****        54.2500  57.0000  60.0000 Du        
   5661 ****        54.2500  57.0000  60.2500 Du        
   5662 ****        54.2500  57.0000  60.5000 Du        
   5663 ****        54.2500  57.0000  60.7500 Du        
   5664 ****        54.2500  57.0000  61.0000 Du        
   5665 ****        54.2500  57.0000  61.2500 Du        
   5666 ****        54.2500  57.0000  61.5000 Du        
   5667 ****        54.2500  57.0000  61.7500 Du        
   5668 ****        54.2500  57.0000  62.0000 Du        
   5669 ****        54.2500  57.0000  62.2500 Du        
   5670 ****        54.2500  57.0000  62.5000 Du        
   5671 ****        54.2500  57.2500  55.7500 Du        
   5672 ****        54.2500  57.2500  56.0000 Du        
   5673 ****        54.2500  57.2500  56.2500 Du        
   5674 ****        54.2500  57.2500  56.5000 Du        
   5675 ****        54.2500  57.2500  56.7500 Du        
   5676 ****        54.2500  57.2500  57.0000 Du        
   5677 ****        54.2500  57.2500  57.2500 Du        
   5678 ****        54.2500  57.2500  57.5000 Du        
   5679 ****        54.2500  57.2500  57.7500 Du        
   5680 ****        54.2500  57.2500  58.0000 Du        
   5681 ****        54.2500  57.2500  58.2500 Du        
   5682 ****        54.2500  57.2500  58.5000 Du        
   5683 ****        54.2500  57.2500  58.7500 Du        
   5684 ****        54.2500  57.2500  59.0000 Du        
   5685 ****        54.2500  57.2500  59.2500 Du        
   5686 ****        54.2500  57.2500  59.5000 Du        
   5687 ****        54.2500  57.2500  59.7500 Du        
   5688 ****        54.2500  57.2500  60.0000 Du        
   5689 ****        54.2500  57.2500  60.2500 Du        
   5690 ****        54.2500  57.2500  60.5000 Du        
   5691 ****        54.2500  57.2500  60.7500 Du        
   5692 ****        54.2500  57.2500  61.0000 Du        
   5693 ****        54.2500  57.2500  61.2500 Du        
   5694 ****        54.2500  57.2500  61.5000 Du        
   5695 ****        54.2500  57.2500  61.7500 Du        
   5696 ****        54.2500  57.2500  62.0000 Du        
   5697 ****        54.2500  57.2500  62.2500 Du        
   5698 ****        54.2500  57.2500  62.5000 Du        
   5699 ****        54.2500  57.2500  62.7500 Du        
   5700 ****        54.2500  57.5000  56.7500 Du        
   5701 ****        54.2500  57.5000  57.0000 Du        
   5702 ****        54.2500  57.5000  57.2500 Du        
   5703 ****        54.2500  57.5000  57.5000 Du        
   5704 ****        54.2500  57.5000  57.7500 Du        
   5705 ****        54.2500  57.5000  58.0000 Du        
   5706 ****        54.2500  57.5000  58.2500 Du        
   5707 ****        54.2500  57.5000  59.5000 Du        
   5708 ****        54.2500  57.5000  59.7500 Du        
   5709 ****        54.2500  57.5000  60.0000 Du        
   5710 ****        54.2500  57.5000  60.2500 Du        
   5711 ****        54.2500  57.5000  60.5000 Du        
   5712 ****        54.2500  57.5000  60.7500 Du        
   5713 ****        54.2500  57.5000  61.0000 Du        
   5714 ****        54.2500  57.5000  61.2500 Du        
   5715 ****        54.2500  57.5000  61.5000 Du        
   5716 ****        54.2500  57.5000  61.7500 Du        
   5717 ****        54.2500  57.5000  62.0000 Du        
   5718 ****        54.2500  57.5000  62.2500 Du        
   5719 ****        54.2500  57.5000  62.5000 Du        
   5720 ****        54.2500  57.5000  62.7500 Du        
   5721 ****        54.2500  57.5000  63.0000 Du        
   5722 ****        54.2500  57.5000  63.2500 Du        
   5723 ****        54.2500  57.7500  60.2500 Du        
   5724 ****        54.2500  57.7500  60.5000 Du        
   5725 ****        54.2500  57.7500  60.7500 Du        
   5726 ****        54.2500  57.7500  61.0000 Du        
   5727 ****        54.2500  57.7500  61.2500 Du        
   5728 ****        54.2500  57.7500  61.5000 Du        
   5729 ****        54.2500  57.7500  61.7500 Du        
   5730 ****        54.2500  57.7500  62.0000 Du        
   5731 ****        54.2500  57.7500  62.2500 Du        
   5732 ****        54.2500  57.7500  62.5000 Du        
   5733 ****        54.2500  57.7500  62.7500 Du        
   5734 ****        54.2500  57.7500  63.0000 Du        
   5735 ****        54.2500  57.7500  63.2500 Du        
   5736 ****        54.2500  57.7500  63.5000 Du        
   5737 ****        54.2500  58.0000  60.7500 Du        
   5738 ****        54.2500  58.0000  61.0000 Du        
   5739 ****        54.2500  58.0000  61.2500 Du        
   5740 ****        54.2500  58.0000  61.5000 Du        
   5741 ****        54.2500  58.0000  61.7500 Du        
   5742 ****        54.2500  58.0000  62.0000 Du        
   5743 ****        54.2500  58.0000  62.2500 Du        
   5744 ****        54.2500  58.0000  62.5000 Du        
   5745 ****        54.2500  58.0000  62.7500 Du        
   5746 ****        54.2500  58.0000  63.0000 Du        
   5747 ****        54.2500  58.0000  63.2500 Du        
   5748 ****        54.2500  58.0000  63.5000 Du        
   5749 ****        54.2500  58.0000  63.7500 Du        
   5750 ****        54.2500  58.2500  61.0000 Du        
   5751 ****        54.2500  58.2500  61.2500 Du        
   5752 ****        54.2500  58.2500  61.5000 Du        
   5753 ****        54.2500  58.2500  61.7500 Du        
   5754 ****        54.2500  58.2500  62.0000 Du        
   5755 ****        54.2500  58.2500  62.2500 Du        
   5756 ****        54.2500  58.2500  62.5000 Du        
   5757 ****        54.2500  58.2500  62.7500 Du        
   5758 ****        54.2500  58.2500  63.0000 Du        
   5759 ****        54.2500  58.2500  63.2500 Du        
   5760 ****        54.2500  58.2500  63.5000 Du        
   5761 ****        54.2500  58.2500  63.7500 Du        
   5762 ****        54.2500  58.5000  61.2500 Du        
   5763 ****        54.2500  58.5000  61.5000 Du        
   5764 ****        54.2500  58.5000  61.7500 Du        
   5765 ****        54.2500  58.5000  62.0000 Du        
   5766 ****        54.2500  58.5000  62.2500 Du        
   5767 ****        54.2500  58.5000  62.5000 Du        
   5768 ****        54.2500  58.5000  62.7500 Du        
   5769 ****        54.2500  58.5000  63.0000 Du        
   5770 ****        54.2500  58.5000  63.2500 Du        
   5771 ****        54.2500  58.5000  63.5000 Du        
   5772 ****        54.2500  58.5000  63.7500 Du        
   5773 ****        54.2500  58.7500  61.5000 Du        
   5774 ****        54.2500  58.7500  61.7500 Du        
   5775 ****        54.2500  58.7500  62.0000 Du        
   5776 ****        54.2500  58.7500  62.2500 Du        
   5777 ****        54.2500  58.7500  62.5000 Du        
   5778 ****        54.2500  58.7500  62.7500 Du        
   5779 ****        54.2500  58.7500  63.0000 Du        
   5780 ****        54.2500  58.7500  63.2500 Du        
   5781 ****        54.2500  58.7500  63.5000 Du        
   5782 ****        54.2500  58.7500  63.7500 Du        
   5783 ****        54.2500  59.0000  62.5000 Du        
   5784 ****        54.2500  59.0000  62.7500 Du        
   5785 ****        54.2500  59.0000  63.0000 Du        
   5786 ****        54.2500  59.0000  63.2500 Du        
   5787 ****        54.2500  59.0000  63.5000 Du        
   5788 ****        54.2500  70.0000  47.7500 Du        
   5789 ****        54.2500  70.0000  48.0000 Du        
   5790 ****        54.2500  70.2500  47.5000 Du        
   5791 ****        54.2500  70.2500  47.7500 Du        
   5792 ****        54.2500  70.2500  48.0000 Du        
   5793 ****        54.2500  70.2500  48.2500 Du        
   5794 ****        54.2500  70.5000  47.5000 Du        
   5795 ****        54.2500  70.5000  47.7500 Du        
   5796 ****        54.2500  70.5000  48.0000 Du        
   5797 ****        54.2500  70.5000  48.2500 Du        
   5798 ****        54.2500  70.7500  47.2500 Du        
   5799 ****        54.2500  70.7500  47.5000 Du        
   5800 ****        54.2500  70.7500  47.7500 Du        
   5801 ****        54.2500  70.7500  48.0000 Du        
   5802 ****        54.2500  70.7500  48.2500 Du        
   5803 ****        54.2500  71.0000  47.2500 Du        
   5804 ****        54.2500  71.0000  47.5000 Du        
   5805 ****        54.2500  71.0000  47.7500 Du        
   5806 ****        54.2500  71.0000  48.0000 Du        
   5807 ****        54.2500  71.2500  47.0000 Du        
   5808 ****        54.2500  71.2500  47.2500 Du        
   5809 ****        54.2500  71.2500  47.5000 Du        
   5810 ****        54.2500  71.2500  47.7500 Du        
   5811 ****        54.2500  71.2500  48.0000 Du        
   5812 ****        54.2500  71.5000  46.7500 Du        
   5813 ****        54.2500  71.5000  47.0000 Du        
   5814 ****        54.2500  71.5000  47.2500 Du        
   5815 ****        54.2500  71.5000  47.5000 Du        
   5816 ****        54.2500  71.5000  47.7500 Du        
   5817 ****        54.2500  71.7500  46.5000 Du        
   5818 ****        54.2500  71.7500  46.7500 Du        
   5819 ****        54.2500  71.7500  47.0000 Du        
   5820 ****        54.2500  71.7500  47.2500 Du        
   5821 ****        54.2500  71.7500  47.5000 Du        
   5822 ****        54.2500  71.7500  47.7500 Du        
   5823 ****        54.2500  72.0000  46.0000 Du        
   5824 ****        54.2500  72.0000  46.2500 Du        
   5825 ****        54.2500  72.0000  46.5000 Du        
   5826 ****        54.2500  72.0000  46.7500 Du        
   5827 ****        54.2500  72.0000  47.0000 Du        
   5828 ****        54.2500  72.0000  47.2500 Du        
   5829 ****        54.2500  72.0000  47.5000 Du        
   5830 ****        54.2500  72.2500  45.7500 Du        
   5831 ****        54.2500  72.2500  46.0000 Du        
   5832 ****        54.2500  72.2500  46.2500 Du        
   5833 ****        54.2500  72.2500  46.5000 Du        
   5834 ****        54.2500  72.2500  46.7500 Du        
   5835 ****        54.2500  72.2500  47.0000 Du        
   5836 ****        54.2500  72.2500  47.2500 Du        
   5837 ****        54.2500  72.2500  47.5000 Du        
   5838 ****        54.2500  72.5000  45.5000 Du        
   5839 ****        54.2500  72.5000  45.7500 Du        
   5840 ****        54.2500  72.5000  46.0000 Du        
   5841 ****        54.2500  72.5000  46.2500 Du        
   5842 ****        54.2500  72.5000  46.5000 Du        
   5843 ****        54.2500  72.5000  46.7500 Du        
   5844 ****        54.2500  72.5000  47.0000 Du        
   5845 ****        54.2500  72.5000  47.2500 Du        
   5846 ****        54.2500  72.7500  45.5000 Du        
   5847 ****        54.2500  72.7500  45.7500 Du        
   5848 ****        54.2500  72.7500  46.0000 Du        
   5849 ****        54.2500  72.7500  46.2500 Du        
   5850 ****        54.2500  72.7500  46.5000 Du        
   5851 ****        54.2500  72.7500  46.7500 Du        
   5852 ****        54.2500  72.7500  47.0000 Du        
   5853 ****        54.2500  72.7500  47.2500 Du        
   5854 ****        54.2500  73.0000  45.5000 Du        
   5855 ****        54.2500  73.0000  45.7500 Du        
   5856 ****        54.2500  73.0000  46.0000 Du        
   5857 ****        54.2500  73.0000  46.2500 Du        
   5858 ****        54.2500  73.0000  46.5000 Du        
   5859 ****        54.2500  73.0000  46.7500 Du        
   5860 ****        54.2500  73.0000  47.0000 Du        
   5861 ****        54.2500  73.0000  47.2500 Du        
   5862 ****        54.2500  73.2500  45.7500 Du        
   5863 ****        54.2500  73.2500  46.0000 Du        
   5864 ****        54.2500  73.2500  46.2500 Du        
   5865 ****        54.2500  73.2500  46.5000 Du        
   5866 ****        54.2500  73.2500  46.7500 Du        
   5867 ****        54.2500  73.2500  47.0000 Du        
   5868 ****        54.2500  73.5000  46.0000 Du        
   5869 ****        54.2500  73.5000  46.2500 Du        
   5870 ****        54.2500  73.5000  46.5000 Du        
   5871 ****        54.2500  73.5000  46.7500 Du        
   5872 ****        54.2500  73.5000  47.0000 Du        
   5873 ****        54.2500  73.7500  46.0000 Du        
   5874 ****        54.2500  73.7500  46.2500 Du        
   5875 ****        54.2500  73.7500  46.5000 Du        
   5876 ****        54.2500  73.7500  46.7500 Du        
   5877 ****        54.2500  73.7500  47.0000 Du        
   5878 ****        54.2500  74.0000  46.0000 Du        
   5879 ****        54.2500  74.0000  46.2500 Du        
   5880 ****        54.2500  74.0000  46.5000 Du        
   5881 ****        54.2500  74.0000  46.7500 Du        
   5882 ****        54.2500  74.2500  46.2500 Du        
   5883 ****        54.2500  74.2500  46.5000 Du        
   5884 ****        54.2500  74.2500  46.7500 Du        
   5885 ****        54.2500  76.7500  46.5000 Du        
   5886 ****        54.2500  77.0000  46.5000 Du        
   5887 ****        54.2500  77.2500  46.5000 Du        
   5888 ****        54.2500  77.5000  46.0000 Du        
   5889 ****        54.2500  77.7500  46.2500 Du        
   5890 ****        54.2500  78.0000  46.5000 Du        
   5891 ****        54.2500  78.0000  46.7500 Du        
   5892 ****        54.2500  78.2500  47.0000 Du        
   5893 ****        54.5000  48.0000  66.5000 Du        
   5894 ****        54.5000  48.2500  66.7500 Du        
   5895 ****        54.5000  48.5000  66.5000 Du        
   5896 ****        54.5000  48.5000  66.7500 Du        
   5897 ****        54.5000  48.7500  66.7500 Du        
   5898 ****        54.5000  49.0000  66.7500 Du        
   5899 ****        54.5000  55.5000  55.7500 Du        
   5900 ****        54.5000  55.5000  56.0000 Du        
   5901 ****        54.5000  55.7500  55.5000 Du        
   5902 ****        54.5000  55.7500  55.7500 Du        
   5903 ****        54.5000  55.7500  56.0000 Du        
   5904 ****        54.5000  55.7500  56.2500 Du        
   5905 ****        54.5000  55.7500  56.5000 Du        
   5906 ****        54.5000  56.0000  55.5000 Du        
   5907 ****        54.5000  56.0000  55.7500 Du        
   5908 ****        54.5000  56.0000  56.0000 Du        
   5909 ****        54.5000  56.0000  56.2500 Du        
   5910 ****        54.5000  56.0000  56.5000 Du        
   5911 ****        54.5000  56.0000  56.7500 Du        
   5912 ****        54.5000  56.0000  57.0000 Du        
   5913 ****        54.5000  56.0000  57.2500 Du        
   5914 ****        54.5000  56.2500  55.5000 Du        
   5915 ****        54.5000  56.2500  55.7500 Du        
   5916 ****        54.5000  56.2500  56.0000 Du        
   5917 ****        54.5000  56.2500  56.2500 Du        
   5918 ****        54.5000  56.2500  56.5000 Du        
   5919 ****        54.5000  56.2500  56.7500 Du        
   5920 ****        54.5000  56.2500  57.0000 Du        
   5921 ****        54.5000  56.2500  57.2500 Du        
   5922 ****        54.5000  56.2500  57.5000 Du        
   5923 ****        54.5000  56.2500  57.7500 Du        
   5924 ****        54.5000  56.2500  58.0000 Du        
   5925 ****        54.5000  56.5000  55.2500 Du        
   5926 ****        54.5000  56.5000  55.5000 Du        
   5927 ****        54.5000  56.5000  55.7500 Du        
   5928 ****        54.5000  56.5000  56.0000 Du        
   5929 ****        54.5000  56.5000  56.2500 Du        
   5930 ****        54.5000  56.5000  56.5000 Du        
   5931 ****        54.5000  56.5000  56.7500 Du        
   5932 ****        54.5000  56.5000  57.0000 Du        
   5933 ****        54.5000  56.5000  57.2500 Du        
   5934 ****        54.5000  56.5000  57.5000 Du        
   5935 ****        54.5000  56.5000  57.7500 Du        
   5936 ****        54.5000  56.5000  58.0000 Du        
   5937 ****        54.5000  56.5000  58.2500 Du        
   5938 ****        54.5000  56.5000  58.5000 Du        
   5939 ****        54.5000  56.7500  55.2500 Du        
   5940 ****        54.5000  56.7500  55.5000 Du        
   5941 ****        54.5000  56.7500  55.7500 Du        
   5942 ****        54.5000  56.7500  56.0000 Du        
   5943 ****        54.5000  56.7500  56.2500 Du        
   5944 ****        54.5000  56.7500  56.5000 Du        
   5945 ****        54.5000  56.7500  56.7500 Du        
   5946 ****        54.5000  56.7500  57.0000 Du        
   5947 ****        54.5000  56.7500  57.2500 Du        
   5948 ****        54.5000  56.7500  57.5000 Du        
   5949 ****        54.5000  56.7500  57.7500 Du        
   5950 ****        54.5000  56.7500  58.0000 Du        
   5951 ****        54.5000  56.7500  58.2500 Du        
   5952 ****        54.5000  56.7500  58.5000 Du        
   5953 ****        54.5000  56.7500  58.7500 Du        
   5954 ****        54.5000  56.7500  59.0000 Du        
   5955 ****        54.5000  57.0000  55.7500 Du        
   5956 ****        54.5000  57.0000  56.0000 Du        
   5957 ****        54.5000  57.0000  56.2500 Du        
   5958 ****        54.5000  57.0000  56.5000 Du        
   5959 ****        54.5000  57.0000  56.7500 Du        
   5960 ****        54.5000  57.0000  57.0000 Du        
   5961 ****        54.5000  57.0000  57.2500 Du        
   5962 ****        54.5000  57.0000  57.5000 Du        
   5963 ****        54.5000  57.0000  57.7500 Du        
   5964 ****        54.5000  57.0000  58.0000 Du        
   5965 ****        54.5000  57.0000  58.2500 Du        
   5966 ****        54.5000  57.0000  58.5000 Du        
   5967 ****        54.5000  57.0000  58.7500 Du        
   5968 ****        54.5000  57.0000  59.0000 Du        
   5969 ****        54.5000  57.0000  59.2500 Du        
   5970 ****        54.5000  57.0000  59.5000 Du        
   5971 ****        54.5000  57.0000  61.2500 Du        
   5972 ****        54.5000  57.0000  61.5000 Du        
   5973 ****        54.5000  57.0000  61.7500 Du        
   5974 ****        54.5000  57.2500  56.2500 Du        
   5975 ****        54.5000  57.2500  56.5000 Du        
   5976 ****        54.5000  57.2500  56.7500 Du        
   5977 ****        54.5000  57.2500  57.0000 Du        
   5978 ****        54.5000  57.2500  57.2500 Du        
   5979 ****        54.5000  57.2500  57.5000 Du        
   5980 ****        54.5000  57.2500  57.7500 Du        
   5981 ****        54.5000  57.2500  58.0000 Du        
   5982 ****        54.5000  57.2500  58.2500 Du        
   5983 ****        54.5000  57.2500  58.5000 Du        
   5984 ****        54.5000  57.2500  58.7500 Du        
   5985 ****        54.5000  57.2500  59.0000 Du        
   5986 ****        54.5000  57.2500  59.2500 Du        
   5987 ****        54.5000  57.2500  59.5000 Du        
   5988 ****        54.5000  57.2500  59.7500 Du        
   5989 ****        54.5000  57.2500  60.0000 Du        
   5990 ****        54.5000  57.2500  60.2500 Du        
   5991 ****        54.5000  57.2500  60.5000 Du        
   5992 ****        54.5000  57.2500  60.7500 Du        
   5993 ****        54.5000  57.2500  61.0000 Du        
   5994 ****        54.5000  57.2500  61.2500 Du        
   5995 ****        54.5000  57.2500  61.5000 Du        
   5996 ****        54.5000  57.2500  61.7500 Du        
   5997 ****        54.5000  57.2500  62.0000 Du        
   5998 ****        54.5000  57.5000  57.0000 Du        
   5999 ****        54.5000  57.5000  57.2500 Du        
   6000 ****        54.5000  57.5000  57.5000 Du        
   6001 ****        54.5000  57.5000  57.7500 Du        
   6002 ****        54.5000  57.5000  58.0000 Du        
   6003 ****        54.5000  57.5000  58.2500 Du        
   6004 ****        54.5000  57.5000  59.7500 Du        
   6005 ****        54.5000  57.5000  60.0000 Du        
   6006 ****        54.5000  57.5000  60.2500 Du        
   6007 ****        54.5000  57.5000  60.5000 Du        
   6008 ****        54.5000  57.5000  60.7500 Du        
   6009 ****        54.5000  57.5000  61.0000 Du        
   6010 ****        54.5000  57.5000  61.2500 Du        
   6011 ****        54.5000  57.5000  61.5000 Du        
   6012 ****        54.5000  57.5000  61.7500 Du        
   6013 ****        54.5000  57.5000  62.0000 Du        
   6014 ****        54.5000  57.5000  62.2500 Du        
   6015 ****        54.5000  57.5000  62.5000 Du        
   6016 ****        54.5000  57.7500  60.5000 Du        
   6017 ****        54.5000  57.7500  60.7500 Du        
   6018 ****        54.5000  57.7500  61.0000 Du        
   6019 ****        54.5000  57.7500  61.2500 Du        
   6020 ****        54.5000  57.7500  61.5000 Du        
   6021 ****        54.5000  57.7500  61.7500 Du        
   6022 ****        54.5000  57.7500  62.0000 Du        
   6023 ****        54.5000  57.7500  62.2500 Du        
   6024 ****        54.5000  57.7500  62.5000 Du        
   6025 ****        54.5000  57.7500  62.7500 Du        
   6026 ****        54.5000  58.0000  60.7500 Du        
   6027 ****        54.5000  58.0000  61.0000 Du        
   6028 ****        54.5000  58.0000  61.2500 Du        
   6029 ****        54.5000  58.0000  61.5000 Du        
   6030 ****        54.5000  58.0000  61.7500 Du        
   6031 ****        54.5000  58.0000  62.0000 Du        
   6032 ****        54.5000  58.0000  62.2500 Du        
   6033 ****        54.5000  58.0000  62.5000 Du        
   6034 ****        54.5000  58.0000  62.7500 Du        
   6035 ****        54.5000  58.0000  63.0000 Du        
   6036 ****        54.5000  58.0000  63.2500 Du        
   6037 ****        54.5000  58.2500  61.0000 Du        
   6038 ****        54.5000  58.2500  61.2500 Du        
   6039 ****        54.5000  58.2500  61.5000 Du        
   6040 ****        54.5000  58.2500  61.7500 Du        
   6041 ****        54.5000  58.2500  62.0000 Du        
   6042 ****        54.5000  58.2500  62.2500 Du        
   6043 ****        54.5000  58.2500  62.5000 Du        
   6044 ****        54.5000  58.2500  62.7500 Du        
   6045 ****        54.5000  58.2500  63.0000 Du        
   6046 ****        54.5000  58.2500  63.2500 Du        
   6047 ****        54.5000  58.5000  61.2500 Du        
   6048 ****        54.5000  58.5000  61.5000 Du        
   6049 ****        54.5000  58.5000  61.7500 Du        
   6050 ****        54.5000  58.5000  62.0000 Du        
   6051 ****        54.5000  58.5000  62.2500 Du        
   6052 ****        54.5000  58.5000  62.5000 Du        
   6053 ****        54.5000  58.5000  62.7500 Du        
   6054 ****        54.5000  58.5000  63.0000 Du        
   6055 ****        54.5000  58.5000  63.2500 Du        
   6056 ****        54.5000  58.5000  63.5000 Du        
   6057 ****        54.5000  58.7500  61.5000 Du        
   6058 ****        54.5000  58.7500  61.7500 Du        
   6059 ****        54.5000  58.7500  62.0000 Du        
   6060 ****        54.5000  58.7500  62.2500 Du        
   6061 ****        54.5000  58.7500  62.5000 Du        
   6062 ****        54.5000  58.7500  62.7500 Du        
   6063 ****        54.5000  58.7500  63.0000 Du        
   6064 ****        54.5000  58.7500  63.2500 Du        
   6065 ****        54.5000  58.7500  63.5000 Du        
   6066 ****        54.5000  59.0000  62.0000 Du        
   6067 ****        54.5000  59.0000  62.2500 Du        
   6068 ****        54.5000  59.0000  62.5000 Du        
   6069 ****        54.5000  59.0000  62.7500 Du        
   6070 ****        54.5000  59.0000  63.0000 Du        
   6071 ****        54.5000  59.0000  63.2500 Du        
   6072 ****        54.5000  59.0000  63.5000 Du        
   6073 ****        54.5000  70.0000  48.0000 Du        
   6074 ****        54.5000  70.2500  47.7500 Du        
   6075 ****        54.5000  70.2500  48.0000 Du        
   6076 ****        54.5000  70.2500  48.2500 Du        
   6077 ****        54.5000  70.5000  47.5000 Du        
   6078 ****        54.5000  70.5000  47.7500 Du        
   6079 ****        54.5000  70.5000  48.0000 Du        
   6080 ****        54.5000  70.5000  48.2500 Du        
   6081 ****        54.5000  70.7500  47.5000 Du        
   6082 ****        54.5000  70.7500  47.7500 Du        
   6083 ****        54.5000  70.7500  48.0000 Du        
   6084 ****        54.5000  71.0000  47.2500 Du        
   6085 ****        54.5000  71.0000  47.5000 Du        
   6086 ****        54.5000  71.0000  47.7500 Du        
   6087 ****        54.5000  71.0000  48.0000 Du        
   6088 ****        54.5000  71.2500  47.2500 Du        
   6089 ****        54.5000  71.2500  47.5000 Du        
   6090 ****        54.5000  71.2500  47.7500 Du        
   6091 ****        54.5000  71.5000  46.7500 Du        
   6092 ****        54.5000  71.5000  47.0000 Du        
   6093 ****        54.5000  71.5000  47.2500 Du        
   6094 ****        54.5000  71.5000  47.5000 Du        
   6095 ****        54.5000  71.5000  47.7500 Du        
   6096 ****        54.5000  71.7500  46.5000 Du        
   6097 ****        54.5000  71.7500  46.7500 Du        
   6098 ****        54.5000  71.7500  47.0000 Du        
   6099 ****        54.5000  71.7500  47.2500 Du        
   6100 ****        54.5000  71.7500  47.5000 Du        
   6101 ****        54.5000  72.0000  46.2500 Du        
   6102 ****        54.5000  72.0000  46.5000 Du        
   6103 ****        54.5000  72.0000  46.7500 Du        
   6104 ****        54.5000  72.0000  47.0000 Du        
   6105 ****        54.5000  72.0000  47.2500 Du        
   6106 ****        54.5000  72.0000  47.5000 Du        
   6107 ****        54.5000  72.2500  45.7500 Du        
   6108 ****        54.5000  72.2500  46.0000 Du        
   6109 ****        54.5000  72.2500  46.2500 Du        
   6110 ****        54.5000  72.2500  46.5000 Du        
   6111 ****        54.5000  72.2500  46.7500 Du        
   6112 ****        54.5000  72.2500  47.0000 Du        
   6113 ****        54.5000  72.2500  47.2500 Du        
   6114 ****        54.5000  72.2500  47.5000 Du        
   6115 ****        54.5000  72.5000  45.7500 Du        
   6116 ****        54.5000  72.5000  46.0000 Du        
   6117 ****        54.5000  72.5000  46.2500 Du        
   6118 ****        54.5000  72.5000  46.5000 Du        
   6119 ****        54.5000  72.5000  46.7500 Du        
   6120 ****        54.5000  72.5000  47.0000 Du        
   6121 ****        54.5000  72.5000  47.2500 Du        
   6122 ****        54.5000  72.7500  45.5000 Du        
   6123 ****        54.5000  72.7500  45.7500 Du        
   6124 ****        54.5000  72.7500  46.0000 Du        
   6125 ****        54.5000  72.7500  46.2500 Du        
   6126 ****        54.5000  72.7500  46.5000 Du        
   6127 ****        54.5000  72.7500  46.7500 Du        
   6128 ****        54.5000  72.7500  47.0000 Du        
   6129 ****        54.5000  72.7500  47.2500 Du        
   6130 ****        54.5000  73.0000  45.7500 Du        
   6131 ****        54.5000  73.0000  46.0000 Du        
   6132 ****        54.5000  73.0000  46.2500 Du        
   6133 ****        54.5000  73.0000  46.5000 Du        
   6134 ****        54.5000  73.0000  46.7500 Du        
   6135 ****        54.5000  73.0000  47.0000 Du        
   6136 ****        54.5000  73.0000  47.2500 Du        
   6137 ****        54.5000  73.2500  45.7500 Du        
   6138 ****        54.5000  73.2500  46.0000 Du        
   6139 ****        54.5000  73.2500  46.2500 Du        
   6140 ****        54.5000  73.2500  46.5000 Du        
   6141 ****        54.5000  73.2500  46.7500 Du        
   6142 ****        54.5000  73.2500  47.0000 Du        
   6143 ****        54.5000  73.5000  45.7500 Du        
   6144 ****        54.5000  73.5000  46.0000 Du        
   6145 ****        54.5000  73.5000  46.2500 Du        
   6146 ****        54.5000  73.5000  46.5000 Du        
   6147 ****        54.5000  73.5000  46.7500 Du        
   6148 ****        54.5000  73.5000  47.0000 Du        
   6149 ****        54.5000  73.7500  46.0000 Du        
   6150 ****        54.5000  73.7500  46.2500 Du        
   6151 ****        54.5000  73.7500  46.5000 Du        
   6152 ****        54.5000  73.7500  46.7500 Du        
   6153 ****        54.5000  73.7500  47.0000 Du        
   6154 ****        54.5000  74.0000  46.0000 Du        
   6155 ****        54.5000  74.0000  46.2500 Du        
   6156 ****        54.5000  74.0000  46.5000 Du        
   6157 ****        54.5000  74.0000  46.7500 Du        
   6158 ****        54.5000  74.0000  47.0000 Du        
   6159 ****        54.5000  74.2500  46.0000 Du        
   6160 ****        54.5000  74.2500  46.2500 Du        
   6161 ****        54.5000  74.2500  46.5000 Du        
   6162 ****        54.5000  74.2500  46.7500 Du        
   6163 ****        54.5000  74.5000  46.2500 Du        
   6164 ****        54.5000  74.5000  46.5000 Du        
   6165 ****        54.5000  74.5000  46.7500 Du        
   6166 ****        54.5000  74.7500  46.2500 Du        
   6167 ****        54.5000  74.7500  46.5000 Du        
   6168 ****        54.5000  74.7500  46.7500 Du        
   6169 ****        54.5000  75.0000  46.5000 Du        
   6170 ****        54.5000  75.0000  46.7500 Du        
   6171 ****        54.5000  75.2500  46.5000 Du        
   6172 ****        54.5000  75.2500  46.7500 Du        
   6173 ****        54.5000  75.5000  46.5000 Du        
   6174 ****        54.5000  75.7500  46.5000 Du        
   6175 ****        54.5000  76.0000  46.5000 Du        
   6176 ****        54.5000  76.7500  46.2500 Du        
   6177 ****        54.5000  77.0000  46.2500 Du        
   6178 ****        54.5000  77.2500  45.7500 Du        
   6179 ****        54.5000  77.2500  46.0000 Du        
   6180 ****        54.5000  77.2500  46.2500 Du        
   6181 ****        54.5000  77.2500  46.5000 Du        
   6182 ****        54.5000  77.5000  45.7500 Du        
   6183 ****        54.5000  77.5000  46.0000 Du        
   6184 ****        54.5000  77.5000  46.2500 Du        
   6185 ****        54.5000  77.5000  46.5000 Du        
   6186 ****        54.5000  77.7500  46.2500 Du        
   6187 ****        54.5000  77.7500  46.5000 Du        
   6188 ****        54.5000  77.7500  46.7500 Du        
   6189 ****        54.5000  78.0000  46.5000 Du        
   6190 ****        54.5000  78.0000  46.7500 Du        
   6191 ****        54.7500  48.0000  66.5000 Du        
   6192 ****        54.7500  48.2500  66.7500 Du        
   6193 ****        54.7500  48.5000  66.7500 Du        
   6194 ****        54.7500  48.7500  66.7500 Du        
   6195 ****        54.7500  49.0000  66.7500 Du        
   6196 ****        54.7500  56.2500  56.0000 Du        
   6197 ****        54.7500  56.2500  56.2500 Du        
   6198 ****        54.7500  56.2500  56.5000 Du        
   6199 ****        54.7500  56.2500  56.7500 Du        
   6200 ****        54.7500  56.2500  57.0000 Du        
   6201 ****        54.7500  56.2500  57.2500 Du        
   6202 ****        54.7500  56.2500  57.5000 Du        
   6203 ****        54.7500  56.2500  57.7500 Du        
   6204 ****        54.7500  56.5000  56.0000 Du        
   6205 ****        54.7500  56.5000  56.2500 Du        
   6206 ****        54.7500  56.5000  56.5000 Du        
   6207 ****        54.7500  56.5000  56.7500 Du        
   6208 ****        54.7500  56.5000  57.0000 Du        
   6209 ****        54.7500  56.5000  57.2500 Du        
   6210 ****        54.7500  56.5000  57.5000 Du        
   6211 ****        54.7500  56.5000  57.7500 Du        
   6212 ****        54.7500  56.5000  58.0000 Du        
   6213 ****        54.7500  56.5000  58.2500 Du        
   6214 ****        54.7500  56.7500  56.0000 Du        
   6215 ****        54.7500  56.7500  56.2500 Du        
   6216 ****        54.7500  56.7500  56.5000 Du        
   6217 ****        54.7500  56.7500  56.7500 Du        
   6218 ****        54.7500  56.7500  57.0000 Du        
   6219 ****        54.7500  56.7500  57.2500 Du        
   6220 ****        54.7500  56.7500  57.5000 Du        
   6221 ****        54.7500  56.7500  57.7500 Du        
   6222 ****        54.7500  56.7500  58.0000 Du        
   6223 ****        54.7500  56.7500  58.2500 Du        
   6224 ****        54.7500  56.7500  58.5000 Du        
   6225 ****        54.7500  56.7500  58.7500 Du        
   6226 ****        54.7500  57.0000  56.5000 Du        
   6227 ****        54.7500  57.0000  56.7500 Du        
   6228 ****        54.7500  57.0000  57.0000 Du        
   6229 ****        54.7500  57.0000  57.2500 Du        
   6230 ****        54.7500  57.0000  57.5000 Du        
   6231 ****        54.7500  57.0000  57.7500 Du        
   6232 ****        54.7500  57.0000  58.0000 Du        
   6233 ****        54.7500  57.0000  58.2500 Du        
   6234 ****        54.7500  57.0000  58.5000 Du        
   6235 ****        54.7500  57.0000  58.7500 Du        
   6236 ****        54.7500  57.0000  59.0000 Du        
   6237 ****        54.7500  57.2500  57.0000 Du        
   6238 ****        54.7500  57.2500  57.2500 Du        
   6239 ****        54.7500  57.2500  57.5000 Du        
   6240 ****        54.7500  57.2500  57.7500 Du        
   6241 ****        54.7500  57.2500  58.0000 Du        
   6242 ****        54.7500  57.2500  58.2500 Du        
   6243 ****        54.7500  57.2500  58.5000 Du        
   6244 ****        54.7500  57.2500  58.7500 Du        
   6245 ****        54.7500  57.2500  59.0000 Du        
   6246 ****        54.7500  57.2500  59.2500 Du        
   6247 ****        54.7500  57.2500  59.5000 Du        
   6248 ****        54.7500  57.2500  59.7500 Du        
   6249 ****        54.7500  57.2500  60.0000 Du        
   6250 ****        54.7500  57.2500  60.2500 Du        
   6251 ****        54.7500  57.2500  60.5000 Du        
   6252 ****        54.7500  57.2500  60.7500 Du        
   6253 ****        54.7500  57.2500  61.0000 Du        
   6254 ****        54.7500  57.5000  57.5000 Du        
   6255 ****        54.7500  57.5000  57.7500 Du        
   6256 ****        54.7500  57.5000  58.0000 Du        
   6257 ****        54.7500  57.5000  60.0000 Du        
   6258 ****        54.7500  57.5000  60.2500 Du        
   6259 ****        54.7500  57.5000  60.5000 Du        
   6260 ****        54.7500  57.5000  60.7500 Du        
   6261 ****        54.7500  57.5000  61.0000 Du        
   6262 ****        54.7500  57.5000  61.2500 Du        
   6263 ****        54.7500  57.7500  60.5000 Du        
   6264 ****        54.7500  57.7500  60.7500 Du        
   6265 ****        54.7500  57.7500  61.0000 Du        
   6266 ****        54.7500  57.7500  61.2500 Du        
   6267 ****        54.7500  57.7500  61.5000 Du        
   6268 ****        54.7500  58.0000  60.7500 Du        
   6269 ****        54.7500  58.0000  61.0000 Du        
   6270 ****        54.7500  58.0000  61.2500 Du        
   6271 ****        54.7500  58.0000  61.5000 Du        
   6272 ****        54.7500  58.0000  61.7500 Du        
   6273 ****        54.7500  58.2500  61.0000 Du        
   6274 ****        54.7500  58.2500  61.2500 Du        
   6275 ****        54.7500  58.2500  61.5000 Du        
   6276 ****        54.7500  58.2500  61.7500 Du        
   6277 ****        54.7500  58.2500  62.0000 Du        
   6278 ****        54.7500  58.5000  61.2500 Du        
   6279 ****        54.7500  58.5000  61.5000 Du        
   6280 ****        54.7500  58.5000  61.7500 Du        
   6281 ****        54.7500  58.5000  62.0000 Du        
   6282 ****        54.7500  58.5000  62.2500 Du        
   6283 ****        54.7500  58.5000  62.5000 Du        
   6284 ****        54.7500  58.5000  62.7500 Du        
   6285 ****        54.7500  58.5000  63.0000 Du        
   6286 ****        54.7500  58.7500  61.5000 Du        
   6287 ****        54.7500  58.7500  61.7500 Du        
   6288 ****        54.7500  58.7500  62.0000 Du        
   6289 ****        54.7500  58.7500  62.2500 Du        
   6290 ****        54.7500  58.7500  62.5000 Du        
   6291 ****        54.7500  58.7500  62.7500 Du        
   6292 ****        54.7500  58.7500  63.0000 Du        
   6293 ****        54.7500  58.7500  63.2500 Du        
   6294 ****        54.7500  59.0000  62.0000 Du        
   6295 ****        54.7500  59.0000  62.2500 Du        
   6296 ****        54.7500  59.0000  62.5000 Du        
   6297 ****        54.7500  59.0000  62.7500 Du        
   6298 ****        54.7500  59.0000  63.0000 Du        
   6299 ****        54.7500  59.0000  63.2500 Du        
   6300 ****        54.7500  59.2500  62.7500 Du        
   6301 ****        54.7500  59.2500  63.0000 Du        
   6302 ****        54.7500  62.5000  47.7500 Du        
   6303 ****        54.7500  62.5000  48.0000 Du        
   6304 ****        54.7500  62.7500  47.7500 Du        
   6305 ****        54.7500  62.7500  48.0000 Du        
   6306 ****        54.7500  63.0000  47.7500 Du        
   6307 ****        54.7500  63.0000  48.0000 Du        
   6308 ****        54.7500  63.2500  47.7500 Du        
   6309 ****        54.7500  63.2500  48.0000 Du        
   6310 ****        54.7500  63.5000  47.7500 Du        
   6311 ****        54.7500  63.5000  48.0000 Du        
   6312 ****        54.7500  63.7500  47.5000 Du        
   6313 ****        54.7500  63.7500  47.7500 Du        
   6314 ****        54.7500  63.7500  48.0000 Du        
   6315 ****        54.7500  64.0000  47.5000 Du        
   6316 ****        54.7500  64.0000  47.7500 Du        
   6317 ****        54.7500  64.7500  47.0000 Du        
   6318 ****        54.7500  65.0000  47.0000 Du        
   6319 ****        54.7500  70.2500  47.7500 Du        
   6320 ****        54.7500  70.2500  48.0000 Du        
   6321 ****        54.7500  70.5000  47.7500 Du        
   6322 ****        54.7500  70.5000  48.0000 Du        
   6323 ****        54.7500  70.7500  47.5000 Du        
   6324 ****        54.7500  70.7500  47.7500 Du        
   6325 ****        54.7500  70.7500  48.0000 Du        
   6326 ****        54.7500  71.0000  47.5000 Du        
   6327 ****        54.7500  71.0000  47.7500 Du        
   6328 ****        54.7500  71.0000  48.0000 Du        
   6329 ****        54.7500  71.2500  47.2500 Du        
   6330 ****        54.7500  71.2500  47.5000 Du        
   6331 ****        54.7500  71.2500  47.7500 Du        
   6332 ****        54.7500  71.5000  47.0000 Du        
   6333 ****        54.7500  71.5000  47.2500 Du        
   6334 ****        54.7500  71.5000  47.5000 Du        
   6335 ****        54.7500  71.5000  47.7500 Du        
   6336 ****        54.7500  71.7500  46.7500 Du        
   6337 ****        54.7500  71.7500  47.0000 Du        
   6338 ****        54.7500  71.7500  47.2500 Du        
   6339 ****        54.7500  71.7500  47.5000 Du        
   6340 ****        54.7500  72.0000  46.2500 Du        
   6341 ****        54.7500  72.0000  46.5000 Du        
   6342 ****        54.7500  72.0000  46.7500 Du        
   6343 ****        54.7500  72.0000  47.0000 Du        
   6344 ****        54.7500  72.0000  47.2500 Du        
   6345 ****        54.7500  72.0000  47.5000 Du        
   6346 ****        54.7500  72.2500  46.0000 Du        
   6347 ****        54.7500  72.2500  46.2500 Du        
   6348 ****        54.7500  72.2500  46.5000 Du        
   6349 ****        54.7500  72.2500  46.7500 Du        
   6350 ****        54.7500  72.2500  47.0000 Du        
   6351 ****        54.7500  72.2500  47.2500 Du        
   6352 ****        54.7500  72.5000  45.7500 Du        
   6353 ****        54.7500  72.5000  46.0000 Du        
   6354 ****        54.7500  72.5000  46.2500 Du        
   6355 ****        54.7500  72.5000  46.5000 Du        
   6356 ****        54.7500  72.5000  46.7500 Du        
   6357 ****        54.7500  72.5000  47.0000 Du        
   6358 ****        54.7500  72.5000  47.2500 Du        
   6359 ****        54.7500  72.7500  45.7500 Du        
   6360 ****        54.7500  72.7500  46.0000 Du        
   6361 ****        54.7500  72.7500  46.2500 Du        
   6362 ****        54.7500  72.7500  46.5000 Du        
   6363 ****        54.7500  72.7500  46.7500 Du        
   6364 ****        54.7500  72.7500  47.0000 Du        
   6365 ****        54.7500  72.7500  47.2500 Du        
   6366 ****        54.7500  73.0000  45.7500 Du        
   6367 ****        54.7500  73.0000  46.0000 Du        
   6368 ****        54.7500  73.0000  46.2500 Du        
   6369 ****        54.7500  73.0000  46.5000 Du        
   6370 ****        54.7500  73.0000  46.7500 Du        
   6371 ****        54.7500  73.0000  47.0000 Du        
   6372 ****        54.7500  73.0000  47.2500 Du        
   6373 ****        54.7500  73.2500  45.7500 Du        
   6374 ****        54.7500  73.2500  46.0000 Du        
   6375 ****        54.7500  73.2500  46.2500 Du        
   6376 ****        54.7500  73.2500  46.5000 Du        
   6377 ****        54.7500  73.2500  46.7500 Du        
   6378 ****        54.7500  73.2500  47.0000 Du        
   6379 ****        54.7500  73.5000  45.7500 Du        
   6380 ****        54.7500  73.5000  46.0000 Du        
   6381 ****        54.7500  73.5000  46.2500 Du        
   6382 ****        54.7500  73.5000  46.5000 Du        
   6383 ****        54.7500  73.5000  46.7500 Du        
   6384 ****        54.7500  73.5000  47.0000 Du        
   6385 ****        54.7500  73.7500  46.0000 Du        
   6386 ****        54.7500  73.7500  46.2500 Du        
   6387 ****        54.7500  73.7500  46.5000 Du        
   6388 ****        54.7500  73.7500  46.7500 Du        
   6389 ****        54.7500  73.7500  47.0000 Du        
   6390 ****        54.7500  74.0000  46.0000 Du        
   6391 ****        54.7500  74.0000  46.2500 Du        
   6392 ****        54.7500  74.0000  46.5000 Du        
   6393 ****        54.7500  74.0000  46.7500 Du        
   6394 ****        54.7500  74.0000  47.0000 Du        
   6395 ****        54.7500  74.2500  46.2500 Du        
   6396 ****        54.7500  74.2500  46.5000 Du        
   6397 ****        54.7500  74.2500  46.7500 Du        
   6398 ****        54.7500  74.2500  47.0000 Du        
   6399 ****        54.7500  74.5000  46.2500 Du        
   6400 ****        54.7500  74.5000  46.5000 Du        
   6401 ****        54.7500  74.5000  46.7500 Du        
   6402 ****        54.7500  74.7500  46.5000 Du        
   6403 ****        54.7500  74.7500  46.7500 Du        
   6404 ****        54.7500  75.0000  46.5000 Du        
   6405 ****        54.7500  75.0000  46.7500 Du        
   6406 ****        54.7500  75.2500  46.5000 Du        
   6407 ****        54.7500  75.2500  46.7500 Du        
   6408 ****        54.7500  75.7500  46.5000 Du        
   6409 ****        54.7500  76.5000  46.2500 Du        
   6410 ****        54.7500  76.7500  46.2500 Du        
   6411 ****        54.7500  76.7500  46.5000 Du        
   6412 ****        54.7500  77.0000  46.0000 Du        
   6413 ****        54.7500  77.0000  46.2500 Du        
   6414 ****        54.7500  77.0000  46.5000 Du        
   6415 ****        54.7500  77.2500  45.7500 Du        
   6416 ****        54.7500  77.2500  46.0000 Du        
   6417 ****        54.7500  77.2500  46.2500 Du        
   6418 ****        54.7500  77.2500  46.5000 Du        
   6419 ****        54.7500  77.5000  45.7500 Du        
   6420 ****        54.7500  77.5000  46.0000 Du        
   6421 ****        54.7500  77.5000  46.2500 Du        
   6422 ****        54.7500  77.5000  46.5000 Du        
   6423 ****        54.7500  77.7500  46.0000 Du        
   6424 ****        54.7500  77.7500  46.2500 Du        
   6425 ****        54.7500  77.7500  46.5000 Du        
   6426 ****        54.7500  78.0000  46.5000 Du        
   6427 ****        54.7500  78.0000  46.7500 Du        
   6428 ****        55.0000  48.2500  66.7500 Du        
   6429 ****        55.0000  48.5000  66.7500 Du        
   6430 ****        55.0000  48.7500  66.7500 Du        
   6431 ****        55.0000  49.0000  66.7500 Du        
   6432 ****        55.0000  56.7500  57.5000 Du        
   6433 ****        55.0000  56.7500  57.7500 Du        
   6434 ****        55.0000  56.7500  58.0000 Du        
   6435 ****        55.0000  56.7500  58.2500 Du        
   6436 ****        55.0000  56.7500  58.5000 Du        
   6437 ****        55.0000  57.0000  57.2500 Du        
   6438 ****        55.0000  57.0000  57.5000 Du        
   6439 ****        55.0000  57.0000  57.7500 Du        
   6440 ****        55.0000  57.0000  58.0000 Du        
   6441 ****        55.0000  57.0000  58.2500 Du        
   6442 ****        55.0000  57.0000  58.5000 Du        
   6443 ****        55.0000  57.0000  58.7500 Du        
   6444 ****        55.0000  57.2500  57.7500 Du        
   6445 ****        55.0000  57.2500  58.0000 Du        
   6446 ****        55.0000  57.7500  60.7500 Du        
   6447 ****        55.0000  61.7500  47.7500 Du        
   6448 ****        55.0000  61.7500  48.0000 Du        
   6449 ****        55.0000  62.0000  47.7500 Du        
   6450 ****        55.0000  62.0000  48.0000 Du        
   6451 ****        55.0000  62.0000  48.2500 Du        
   6452 ****        55.0000  62.2500  47.5000 Du        
   6453 ****        55.0000  62.2500  47.7500 Du        
   6454 ****        55.0000  62.2500  48.0000 Du        
   6455 ****        55.0000  62.2500  48.2500 Du        
   6456 ****        55.0000  62.2500  48.5000 Du        
   6457 ****        55.0000  62.5000  47.5000 Du        
   6458 ****        55.0000  62.5000  47.7500 Du        
   6459 ****        55.0000  62.5000  48.0000 Du        
   6460 ****        55.0000  62.5000  48.2500 Du        
   6461 ****        55.0000  62.5000  48.5000 Du        
   6462 ****        55.0000  62.7500  47.5000 Du        
   6463 ****        55.0000  62.7500  47.7500 Du        
   6464 ****        55.0000  62.7500  48.0000 Du        
   6465 ****        55.0000  62.7500  48.2500 Du        
   6466 ****        55.0000  62.7500  48.5000 Du        
   6467 ****        55.0000  63.0000  47.5000 Du        
   6468 ****        55.0000  63.0000  47.7500 Du        
   6469 ****        55.0000  63.0000  48.0000 Du        
   6470 ****        55.0000  63.0000  48.2500 Du        
   6471 ****        55.0000  63.2500  47.5000 Du        
   6472 ****        55.0000  63.2500  47.7500 Du        
   6473 ****        55.0000  63.2500  48.0000 Du        
   6474 ****        55.0000  63.2500  48.2500 Du        
   6475 ****        55.0000  63.5000  47.5000 Du        
   6476 ****        55.0000  63.5000  47.7500 Du        
   6477 ****        55.0000  63.5000  48.0000 Du        
   6478 ****        55.0000  63.7500  47.5000 Du        
   6479 ****        55.0000  63.7500  47.7500 Du        
   6480 ****        55.0000  63.7500  48.0000 Du        
   6481 ****        55.0000  64.0000  47.2500 Du        
   6482 ****        55.0000  64.0000  47.5000 Du        
   6483 ****        55.0000  64.0000  47.7500 Du        
   6484 ****        55.0000  64.0000  48.0000 Du        
   6485 ****        55.0000  64.2500  47.0000 Du        
   6486 ****        55.0000  64.2500  47.2500 Du        
   6487 ****        55.0000  64.2500  47.5000 Du        
   6488 ****        55.0000  64.2500  47.7500 Du        
   6489 ****        55.0000  64.5000  46.7500 Du        
   6490 ****        55.0000  64.5000  47.0000 Du        
   6491 ****        55.0000  64.5000  47.2500 Du        
   6492 ****        55.0000  64.5000  47.5000 Du        
   6493 ****        55.0000  64.5000  47.7500 Du        
   6494 ****        55.0000  64.7500  47.0000 Du        
   6495 ****        55.0000  64.7500  47.2500 Du        
   6496 ****        55.0000  70.5000  47.7500 Du        
   6497 ****        55.0000  70.5000  48.0000 Du        
   6498 ****        55.0000  70.7500  47.7500 Du        
   6499 ****        55.0000  70.7500  48.0000 Du        
   6500 ****        55.0000  71.0000  47.7500 Du        
   6501 ****        55.0000  71.2500  47.5000 Du        
   6502 ****        55.0000  71.2500  47.7500 Du        
   6503 ****        55.0000  71.5000  47.2500 Du        
   6504 ****        55.0000  71.5000  47.5000 Du        
   6505 ****        55.0000  71.7500  47.0000 Du        
   6506 ****        55.0000  71.7500  47.2500 Du        
   6507 ****        55.0000  71.7500  47.5000 Du        
   6508 ****        55.0000  72.0000  46.5000 Du        
   6509 ****        55.0000  72.0000  46.7500 Du        
   6510 ****        55.0000  72.0000  47.0000 Du        
   6511 ****        55.0000  72.0000  47.2500 Du        
   6512 ****        55.0000  72.2500  46.2500 Du        
   6513 ****        55.0000  72.2500  46.5000 Du        
   6514 ****        55.0000  72.2500  46.7500 Du        
   6515 ****        55.0000  72.2500  47.0000 Du        
   6516 ****        55.0000  72.2500  47.2500 Du        
   6517 ****        55.0000  72.5000  46.0000 Du        
   6518 ****        55.0000  72.5000  46.2500 Du        
   6519 ****        55.0000  72.5000  46.5000 Du        
   6520 ****        55.0000  72.5000  46.7500 Du        
   6521 ****        55.0000  72.5000  47.0000 Du        
   6522 ****        55.0000  72.5000  47.2500 Du        
   6523 ****        55.0000  72.7500  46.0000 Du        
   6524 ****        55.0000  72.7500  46.2500 Du        
   6525 ****        55.0000  72.7500  46.5000 Du        
   6526 ****        55.0000  72.7500  46.7500 Du        
   6527 ****        55.0000  72.7500  47.0000 Du        
   6528 ****        55.0000  72.7500  47.2500 Du        
   6529 ****        55.0000  73.0000  46.0000 Du        
   6530 ****        55.0000  73.0000  46.2500 Du        
   6531 ****        55.0000  73.0000  46.5000 Du        
   6532 ****        55.0000  73.0000  46.7500 Du        
   6533 ****        55.0000  73.0000  47.0000 Du        
   6534 ****        55.0000  73.0000  47.2500 Du        
   6535 ****        55.0000  73.2500  46.0000 Du        
   6536 ****        55.0000  73.2500  46.2500 Du        
   6537 ****        55.0000  73.2500  46.5000 Du        
   6538 ****        55.0000  73.2500  46.7500 Du        
   6539 ****        55.0000  73.2500  47.0000 Du        
   6540 ****        55.0000  73.5000  46.0000 Du        
   6541 ****        55.0000  73.5000  46.2500 Du        
   6542 ****        55.0000  73.5000  46.5000 Du        
   6543 ****        55.0000  73.5000  46.7500 Du        
   6544 ****        55.0000  73.5000  47.0000 Du        
   6545 ****        55.0000  73.7500  46.0000 Du        
   6546 ****        55.0000  73.7500  46.2500 Du        
   6547 ****        55.0000  73.7500  46.5000 Du        
   6548 ****        55.0000  73.7500  46.7500 Du        
   6549 ****        55.0000  73.7500  47.0000 Du        
   6550 ****        55.0000  74.0000  46.0000 Du        
   6551 ****        55.0000  74.0000  46.2500 Du        
   6552 ****        55.0000  74.0000  46.5000 Du        
   6553 ****        55.0000  74.0000  46.7500 Du        
   6554 ****        55.0000  74.0000  47.0000 Du        
   6555 ****        55.0000  74.2500  46.2500 Du        
   6556 ****        55.0000  74.2500  46.5000 Du        
   6557 ****        55.0000  74.2500  46.7500 Du        
   6558 ****        55.0000  74.5000  46.5000 Du        
   6559 ****        55.0000  74.5000  46.7500 Du        
   6560 ****        55.0000  74.7500  46.5000 Du        
   6561 ****        55.0000  74.7500  46.7500 Du        
   6562 ****        55.0000  75.0000  46.5000 Du        
   6563 ****        55.0000  75.0000  46.7500 Du        
   6564 ****        55.0000  75.2500  46.5000 Du        
   6565 ****        55.0000  75.2500  46.7500 Du        
   6566 ****        55.0000  76.7500  46.2500 Du        
   6567 ****        55.0000  77.0000  46.0000 Du        
   6568 ****        55.0000  77.0000  46.2500 Du        
   6569 ****        55.0000  77.2500  45.7500 Du        
   6570 ****        55.0000  77.2500  46.0000 Du        
   6571 ****        55.0000  77.2500  46.2500 Du        
   6572 ****        55.0000  77.5000  45.7500 Du        
   6573 ****        55.0000  77.5000  46.0000 Du        
   6574 ****        55.0000  77.5000  46.2500 Du        
   6575 ****        55.0000  77.5000  46.5000 Du        
   6576 ****        55.0000  77.7500  46.0000 Du        
   6577 ****        55.0000  77.7500  46.2500 Du        
   6578 ****        55.0000  77.7500  46.5000 Du        
   6579 ****        55.0000  78.0000  46.5000 Du        
   6580 ****        55.0000  78.0000  46.7500 Du        
   6581 ****        55.2500  48.2500  66.7500 Du        
   6582 ****        55.2500  48.5000  66.7500 Du        
   6583 ****        55.2500  48.7500  66.7500 Du        
   6584 ****        55.2500  49.0000  66.7500 Du        
   6585 ****        55.2500  61.5000  47.7500 Du        
   6586 ****        55.2500  61.5000  48.0000 Du        
   6587 ****        55.2500  61.7500  47.7500 Du        
   6588 ****        55.2500  61.7500  48.0000 Du        
   6589 ****        55.2500  61.7500  48.2500 Du        
   6590 ****        55.2500  62.0000  47.7500 Du        
   6591 ****        55.2500  62.0000  48.0000 Du        
   6592 ****        55.2500  62.0000  48.2500 Du        
   6593 ****        55.2500  62.0000  48.5000 Du        
   6594 ****        55.2500  62.2500  47.5000 Du        
   6595 ****        55.2500  62.2500  47.7500 Du        
   6596 ****        55.2500  62.2500  48.0000 Du        
   6597 ****        55.2500  62.2500  48.2500 Du        
   6598 ****        55.2500  62.2500  48.5000 Du        
   6599 ****        55.2500  62.2500  48.7500 Du        
   6600 ****        55.2500  62.5000  47.5000 Du        
   6601 ****        55.2500  62.5000  47.7500 Du        
   6602 ****        55.2500  62.5000  48.0000 Du        
   6603 ****        55.2500  62.5000  48.2500 Du        
   6604 ****        55.2500  62.5000  48.5000 Du        
   6605 ****        55.2500  62.5000  48.7500 Du        
   6606 ****        55.2500  62.7500  47.5000 Du        
   6607 ****        55.2500  62.7500  47.7500 Du        
   6608 ****        55.2500  62.7500  48.0000 Du        
   6609 ****        55.2500  62.7500  48.2500 Du        
   6610 ****        55.2500  62.7500  48.5000 Du        
   6611 ****        55.2500  63.0000  47.5000 Du        
   6612 ****        55.2500  63.0000  47.7500 Du        
   6613 ****        55.2500  63.0000  48.0000 Du        
   6614 ****        55.2500  63.0000  48.2500 Du        
   6615 ****        55.2500  63.0000  48.5000 Du        
   6616 ****        55.2500  63.2500  47.7500 Du        
   6617 ****        55.2500  63.2500  48.0000 Du        
   6618 ****        55.2500  63.2500  48.2500 Du        
   6619 ****        55.2500  63.5000  47.5000 Du        
   6620 ****        55.2500  63.5000  47.7500 Du        
   6621 ****        55.2500  63.5000  48.0000 Du        
   6622 ****        55.2500  63.5000  48.2500 Du        
   6623 ****        55.2500  63.7500  47.2500 Du        
   6624 ****        55.2500  63.7500  47.5000 Du        
   6625 ****        55.2500  63.7500  47.7500 Du        
   6626 ****        55.2500  63.7500  48.0000 Du        
   6627 ****        55.2500  63.7500  48.2500 Du        
   6628 ****        55.2500  64.0000  47.0000 Du        
   6629 ****        55.2500  64.0000  47.2500 Du        
   6630 ****        55.2500  64.0000  47.5000 Du        
   6631 ****        55.2500  64.0000  47.7500 Du        
   6632 ****        55.2500  64.0000  48.0000 Du        
   6633 ****        55.2500  64.0000  48.2500 Du        
   6634 ****        55.2500  64.2500  47.0000 Du        
   6635 ****        55.2500  64.2500  47.2500 Du        
   6636 ****        55.2500  64.2500  47.5000 Du        
   6637 ****        55.2500  64.2500  47.7500 Du        
   6638 ****        55.2500  64.2500  48.0000 Du        
   6639 ****        55.2500  64.5000  46.7500 Du        
   6640 ****        55.2500  64.5000  47.0000 Du        
   6641 ****        55.2500  64.5000  47.2500 Du        
   6642 ****        55.2500  64.5000  47.5000 Du        
   6643 ****        55.2500  64.7500  47.0000 Du        
   6644 ****        55.2500  70.5000  48.0000 Du        
   6645 ****        55.2500  70.7500  48.0000 Du        
   6646 ****        55.2500  71.0000  47.7500 Du        
   6647 ****        55.2500  71.7500  47.0000 Du        
   6648 ****        55.2500  71.7500  47.2500 Du        
   6649 ****        55.2500  72.0000  46.7500 Du        
   6650 ****        55.2500  72.0000  47.0000 Du        
   6651 ****        55.2500  72.0000  47.2500 Du        
   6652 ****        55.2500  72.2500  46.5000 Du        
   6653 ****        55.2500  72.2500  46.7500 Du        
   6654 ****        55.2500  72.2500  47.0000 Du        
   6655 ****        55.2500  72.2500  47.2500 Du        
   6656 ****        55.2500  72.5000  46.2500 Du        
   6657 ****        55.2500  72.5000  46.5000 Du        
   6658 ****        55.2500  72.5000  46.7500 Du        
   6659 ****        55.2500  72.5000  47.0000 Du        
   6660 ****        55.2500  72.5000  47.2500 Du        
   6661 ****        55.2500  72.7500  46.0000 Du        
   6662 ****        55.2500  72.7500  46.2500 Du        
   6663 ****        55.2500  72.7500  46.5000 Du        
   6664 ****        55.2500  72.7500  46.7500 Du        
   6665 ****        55.2500  72.7500  47.0000 Du        
   6666 ****        55.2500  72.7500  47.2500 Du        
   6667 ****        55.2500  73.0000  46.0000 Du        
   6668 ****        55.2500  73.0000  46.2500 Du        
   6669 ****        55.2500  73.0000  46.5000 Du        
   6670 ****        55.2500  73.0000  46.7500 Du        
   6671 ****        55.2500  73.0000  47.0000 Du        
   6672 ****        55.2500  73.2500  46.0000 Du        
   6673 ****        55.2500  73.2500  46.2500 Du        
   6674 ****        55.2500  73.2500  46.5000 Du        
   6675 ****        55.2500  73.2500  46.7500 Du        
   6676 ****        55.2500  73.2500  47.0000 Du        
   6677 ****        55.2500  73.5000  46.0000 Du        
   6678 ****        55.2500  73.5000  46.2500 Du        
   6679 ****        55.2500  73.5000  46.5000 Du        
   6680 ****        55.2500  73.5000  46.7500 Du        
   6681 ****        55.2500  73.5000  47.0000 Du        
   6682 ****        55.2500  73.7500  46.2500 Du        
   6683 ****        55.2500  73.7500  46.5000 Du        
   6684 ****        55.2500  73.7500  46.7500 Du        
   6685 ****        55.2500  73.7500  47.0000 Du        
   6686 ****        55.2500  74.0000  46.2500 Du        
   6687 ****        55.2500  74.0000  46.5000 Du        
   6688 ****        55.2500  74.0000  46.7500 Du        
   6689 ****        55.2500  74.0000  47.0000 Du        
   6690 ****        55.2500  74.2500  46.2500 Du        
   6691 ****        55.2500  74.2500  46.5000 Du        
   6692 ****        55.2500  74.2500  46.7500 Du        
   6693 ****        55.2500  74.5000  46.5000 Du        
   6694 ****        55.2500  74.5000  46.7500 Du        
   6695 ****        55.2500  74.7500  46.5000 Du        
   6696 ****        55.2500  74.7500  46.7500 Du        
   6697 ****        55.2500  75.0000  46.5000 Du        
   6698 ****        55.2500  75.0000  46.7500 Du        
   6699 ****        55.2500  75.2500  46.7500 Du        
   6700 ****        55.2500  76.7500  46.2500 Du        
   6701 ****        55.2500  77.0000  46.0000 Du        
   6702 ****        55.2500  77.0000  46.2500 Du        
   6703 ****        55.2500  77.2500  46.0000 Du        
   6704 ****        55.2500  77.2500  46.2500 Du        
   6705 ****        55.2500  77.5000  45.7500 Du        
   6706 ****        55.2500  77.5000  46.0000 Du        
   6707 ****        55.2500  77.5000  46.2500 Du        
   6708 ****        55.2500  77.5000  46.5000 Du        
   6709 ****        55.2500  77.7500  46.0000 Du        
   6710 ****        55.2500  77.7500  46.2500 Du        
   6711 ****        55.2500  77.7500  46.5000 Du        
   6712 ****        55.2500  78.0000  46.5000 Du        
   6713 ****        55.5000  48.2500  66.7500 Du        
   6714 ****        55.5000  61.5000  47.7500 Du        
   6715 ****        55.5000  61.7500  47.7500 Du        
   6716 ****        55.5000  61.7500  48.0000 Du        
   6717 ****        55.5000  61.7500  48.2500 Du        
   6718 ****        55.5000  61.7500  48.5000 Du        
   6719 ****        55.5000  62.0000  47.5000 Du        
   6720 ****        55.5000  62.0000  47.7500 Du        
   6721 ****        55.5000  62.0000  48.0000 Du        
   6722 ****        55.5000  62.0000  48.2500 Du        
   6723 ****        55.5000  62.0000  48.5000 Du        
   6724 ****        55.5000  62.0000  48.7500 Du        
   6725 ****        55.5000  62.2500  47.5000 Du        
   6726 ****        55.5000  62.2500  47.7500 Du        
   6727 ****        55.5000  62.2500  48.0000 Du        
   6728 ****        55.5000  62.2500  48.2500 Du        
   6729 ****        55.5000  62.2500  48.5000 Du        
   6730 ****        55.5000  62.2500  48.7500 Du        
   6731 ****        55.5000  62.5000  47.5000 Du        
   6732 ****        55.5000  62.5000  47.7500 Du        
   6733 ****        55.5000  62.5000  48.0000 Du        
   6734 ****        55.5000  62.5000  48.2500 Du        
   6735 ****        55.5000  62.5000  48.5000 Du        
   6736 ****        55.5000  62.5000  48.7500 Du        
   6737 ****        55.5000  62.7500  47.2500 Du        
   6738 ****        55.5000  62.7500  47.5000 Du        
   6739 ****        55.5000  62.7500  47.7500 Du        
   6740 ****        55.5000  62.7500  48.0000 Du        
   6741 ****        55.5000  62.7500  48.2500 Du        
   6742 ****        55.5000  62.7500  48.5000 Du        
   6743 ****        55.5000  62.7500  48.7500 Du        
   6744 ****        55.5000  63.0000  47.2500 Du        
   6745 ****        55.5000  63.0000  47.5000 Du        
   6746 ****        55.5000  63.0000  47.7500 Du        
   6747 ****        55.5000  63.0000  48.0000 Du        
   6748 ****        55.5000  63.0000  48.2500 Du        
   6749 ****        55.5000  63.0000  48.5000 Du        
   6750 ****        55.5000  63.2500  47.2500 Du        
   6751 ****        55.5000  63.2500  47.5000 Du        
   6752 ****        55.5000  63.2500  47.7500 Du        
   6753 ****        55.5000  63.2500  48.0000 Du        
   6754 ****        55.5000  63.2500  48.2500 Du        
   6755 ****        55.5000  63.2500  48.5000 Du        
   6756 ****        55.5000  63.5000  47.0000 Du        
   6757 ****        55.5000  63.5000  47.2500 Du        
   6758 ****        55.5000  63.5000  47.5000 Du        
   6759 ****        55.5000  63.5000  47.7500 Du        
   6760 ****        55.5000  63.5000  48.0000 Du        
   6761 ****        55.5000  63.5000  48.2500 Du        
   6762 ****        55.5000  63.7500  47.0000 Du        
   6763 ****        55.5000  63.7500  47.2500 Du        
   6764 ****        55.5000  63.7500  47.5000 Du        
   6765 ****        55.5000  63.7500  47.7500 Du        
   6766 ****        55.5000  63.7500  48.0000 Du        
   6767 ****        55.5000  63.7500  48.2500 Du        
   6768 ****        55.5000  64.0000  47.0000 Du        
   6769 ****        55.5000  64.0000  47.2500 Du        
   6770 ****        55.5000  64.0000  47.5000 Du        
   6771 ****        55.5000  64.0000  47.7500 Du        
   6772 ****        55.5000  64.0000  48.0000 Du        
   6773 ****        55.5000  64.0000  48.2500 Du        
   6774 ****        55.5000  64.2500  47.0000 Du        
   6775 ****        55.5000  64.2500  47.2500 Du        
   6776 ****        55.5000  64.2500  47.5000 Du        
   6777 ****        55.5000  64.2500  47.7500 Du        
   6778 ****        55.5000  64.2500  48.0000 Du        
   6779 ****        55.5000  64.5000  47.0000 Du        
   6780 ****        55.5000  64.5000  47.2500 Du        
   6781 ****        55.5000  64.5000  47.5000 Du        
   6782 ****        55.5000  64.7500  46.7500 Du        
   6783 ****        55.5000  64.7500  47.0000 Du        
   6784 ****        55.5000  72.0000  47.0000 Du        
   6785 ****        55.5000  72.0000  47.2500 Du        
   6786 ****        55.5000  72.2500  46.7500 Du        
   6787 ****        55.5000  72.2500  47.0000 Du        
   6788 ****        55.5000  72.2500  47.2500 Du        
   6789 ****        55.5000  72.5000  46.5000 Du        
   6790 ****        55.5000  72.5000  46.7500 Du        
   6791 ****        55.5000  72.5000  47.0000 Du        
   6792 ****        55.5000  72.5000  47.2500 Du        
   6793 ****        55.5000  72.7500  46.2500 Du        
   6794 ****        55.5000  72.7500  46.5000 Du        
   6795 ****        55.5000  72.7500  46.7500 Du        
   6796 ****        55.5000  72.7500  47.0000 Du        
   6797 ****        55.5000  73.0000  46.2500 Du        
   6798 ****        55.5000  73.0000  46.5000 Du        
   6799 ****        55.5000  73.0000  46.7500 Du        
   6800 ****        55.5000  73.0000  47.0000 Du        
   6801 ****        55.5000  73.2500  46.2500 Du        
   6802 ****        55.5000  73.2500  46.5000 Du        
   6803 ****        55.5000  73.2500  46.7500 Du        
   6804 ****        55.5000  73.2500  47.0000 Du        
   6805 ****        55.5000  73.5000  46.2500 Du        
   6806 ****        55.5000  73.5000  46.5000 Du        
   6807 ****        55.5000  73.5000  46.7500 Du        
   6808 ****        55.5000  73.5000  47.0000 Du        
   6809 ****        55.5000  73.7500  46.2500 Du        
   6810 ****        55.5000  73.7500  46.5000 Du        
   6811 ****        55.5000  73.7500  46.7500 Du        
   6812 ****        55.5000  73.7500  47.0000 Du        
   6813 ****        55.5000  74.0000  46.2500 Du        
   6814 ****        55.5000  74.0000  46.5000 Du        
   6815 ****        55.5000  74.0000  46.7500 Du        
   6816 ****        55.5000  74.0000  47.0000 Du        
   6817 ****        55.5000  74.2500  46.5000 Du        
   6818 ****        55.5000  74.2500  46.7500 Du        
   6819 ****        55.5000  74.2500  47.0000 Du        
   6820 ****        55.5000  74.5000  46.5000 Du        
   6821 ****        55.5000  74.5000  46.7500 Du        
   6822 ****        55.5000  74.7500  46.5000 Du        
   6823 ****        55.5000  74.7500  46.7500 Du        
   6824 ****        55.5000  75.0000  46.5000 Du        
   6825 ****        55.5000  75.0000  46.7500 Du        
   6826 ****        55.5000  75.2500  46.7500 Du        
   6827 ****        55.5000  76.7500  46.2500 Du        
   6828 ****        55.5000  76.7500  46.5000 Du        
   6829 ****        55.5000  77.0000  46.0000 Du        
   6830 ****        55.5000  77.0000  46.2500 Du        
   6831 ****        55.5000  77.0000  46.5000 Du        
   6832 ****        55.5000  77.2500  46.0000 Du        
   6833 ****        55.5000  77.2500  46.2500 Du        
   6834 ****        55.5000  77.2500  46.5000 Du        
   6835 ****        55.5000  77.5000  45.7500 Du        
   6836 ****        55.5000  77.5000  46.0000 Du        
   6837 ****        55.5000  77.5000  46.2500 Du        
   6838 ****        55.5000  77.5000  46.5000 Du        
   6839 ****        55.5000  77.7500  46.2500 Du        
   6840 ****        55.5000  77.7500  46.5000 Du        
   6841 ****        55.5000  78.0000  46.5000 Du        
   6842 ****        55.7500  48.2500  66.7500 Du        
   6843 ****        55.7500  48.5000  66.7500 Du        
   6844 ****        55.7500  61.2500  47.5000 Du        
   6845 ****        55.7500  61.5000  47.5000 Du        
   6846 ****        55.7500  61.5000  47.7500 Du        
   6847 ****        55.7500  61.5000  48.0000 Du        
   6848 ****        55.7500  61.7500  47.5000 Du        
   6849 ****        55.7500  61.7500  47.7500 Du        
   6850 ****        55.7500  61.7500  48.0000 Du        
   6851 ****        55.7500  61.7500  48.2500 Du        
   6852 ****        55.7500  61.7500  48.5000 Du        
   6853 ****        55.7500  62.0000  47.2500 Du        
   6854 ****        55.7500  62.0000  47.5000 Du        
   6855 ****        55.7500  62.0000  47.7500 Du        
   6856 ****        55.7500  62.0000  48.0000 Du        
   6857 ****        55.7500  62.0000  48.2500 Du        
   6858 ****        55.7500  62.0000  48.5000 Du        
   6859 ****        55.7500  62.0000  48.7500 Du        
   6860 ****        55.7500  62.2500  47.2500 Du        
   6861 ****        55.7500  62.2500  47.5000 Du        
   6862 ****        55.7500  62.2500  47.7500 Du        
   6863 ****        55.7500  62.2500  48.0000 Du        
   6864 ****        55.7500  62.2500  48.2500 Du        
   6865 ****        55.7500  62.2500  48.5000 Du        
   6866 ****        55.7500  62.2500  48.7500 Du        
   6867 ****        55.7500  62.2500  49.0000 Du        
   6868 ****        55.7500  62.5000  47.2500 Du        
   6869 ****        55.7500  62.5000  47.5000 Du        
   6870 ****        55.7500  62.5000  47.7500 Du        
   6871 ****        55.7500  62.5000  48.0000 Du        
   6872 ****        55.7500  62.5000  48.2500 Du        
   6873 ****        55.7500  62.5000  48.5000 Du        
   6874 ****        55.7500  62.5000  48.7500 Du        
   6875 ****        55.7500  62.5000  49.0000 Du        
   6876 ****        55.7500  62.7500  47.2500 Du        
   6877 ****        55.7500  62.7500  47.5000 Du        
   6878 ****        55.7500  62.7500  47.7500 Du        
   6879 ****        55.7500  62.7500  48.0000 Du        
   6880 ****        55.7500  62.7500  48.2500 Du        
   6881 ****        55.7500  62.7500  48.5000 Du        
   6882 ****        55.7500  62.7500  48.7500 Du        
   6883 ****        55.7500  63.0000  47.2500 Du        
   6884 ****        55.7500  63.0000  47.5000 Du        
   6885 ****        55.7500  63.0000  47.7500 Du        
   6886 ****        55.7500  63.0000  48.0000 Du        
   6887 ****        55.7500  63.0000  48.2500 Du        
   6888 ****        55.7500  63.0000  48.5000 Du        
   6889 ****        55.7500  63.0000  48.7500 Du        
   6890 ****        55.7500  63.2500  47.2500 Du        
   6891 ****        55.7500  63.2500  47.5000 Du        
   6892 ****        55.7500  63.2500  47.7500 Du        
   6893 ****        55.7500  63.2500  48.0000 Du        
   6894 ****        55.7500  63.2500  48.2500 Du        
   6895 ****        55.7500  63.2500  48.5000 Du        
   6896 ****        55.7500  63.5000  47.2500 Du        
   6897 ****        55.7500  63.5000  47.5000 Du        
   6898 ****        55.7500  63.5000  47.7500 Du        
   6899 ****        55.7500  63.5000  48.0000 Du        
   6900 ****        55.7500  63.5000  48.2500 Du        
   6901 ****        55.7500  63.5000  48.5000 Du        
   6902 ****        55.7500  63.7500  47.2500 Du        
   6903 ****        55.7500  63.7500  47.5000 Du        
   6904 ****        55.7500  63.7500  47.7500 Du        
   6905 ****        55.7500  63.7500  48.0000 Du        
   6906 ****        55.7500  63.7500  48.2500 Du        
   6907 ****        55.7500  63.7500  48.5000 Du        
   6908 ****        55.7500  64.0000  47.2500 Du        
   6909 ****        55.7500  64.0000  47.5000 Du        
   6910 ****        55.7500  64.0000  47.7500 Du        
   6911 ****        55.7500  64.0000  48.0000 Du        
   6912 ****        55.7500  64.0000  48.2500 Du        
   6913 ****        55.7500  64.2500  47.2500 Du        
   6914 ****        55.7500  64.2500  47.5000 Du        
   6915 ****        55.7500  64.2500  47.7500 Du        
   6916 ****        55.7500  72.2500  47.0000 Du        
   6917 ****        55.7500  72.5000  46.7500 Du        
   6918 ****        55.7500  72.5000  47.0000 Du        
   6919 ****        55.7500  72.7500  46.5000 Du        
   6920 ****        55.7500  72.7500  46.7500 Du        
   6921 ****        55.7500  72.7500  47.0000 Du        
   6922 ****        55.7500  73.0000  46.5000 Du        
   6923 ****        55.7500  73.0000  46.7500 Du        
   6924 ****        55.7500  73.0000  47.0000 Du        
   6925 ****        55.7500  73.2500  46.5000 Du        
   6926 ****        55.7500  73.2500  46.7500 Du        
   6927 ****        55.7500  73.2500  47.0000 Du        
   6928 ****        55.7500  73.5000  46.5000 Du        
   6929 ****        55.7500  73.5000  46.7500 Du        
   6930 ****        55.7500  73.5000  47.0000 Du        
   6931 ****        55.7500  73.7500  46.5000 Du        
   6932 ****        55.7500  73.7500  46.7500 Du        
   6933 ****        55.7500  73.7500  47.0000 Du        
   6934 ****        55.7500  74.0000  46.5000 Du        
   6935 ****        55.7500  74.0000  46.7500 Du        
   6936 ****        55.7500  74.0000  47.0000 Du        
   6937 ****        55.7500  74.2500  46.5000 Du        
   6938 ****        55.7500  74.2500  46.7500 Du        
   6939 ****        55.7500  74.2500  47.0000 Du        
   6940 ****        55.7500  74.5000  46.5000 Du        
   6941 ****        55.7500  74.5000  46.7500 Du        
   6942 ****        55.7500  74.7500  46.7500 Du        
   6943 ****        55.7500  75.0000  46.7500 Du        
   6944 ****        55.7500  76.7500  46.2500 Du        
   6945 ****        55.7500  77.0000  46.0000 Du        
   6946 ****        55.7500  77.0000  46.2500 Du        
   6947 ****        55.7500  77.0000  46.5000 Du        
   6948 ****        55.7500  77.2500  46.0000 Du        
   6949 ****        55.7500  77.2500  46.2500 Du        
   6950 ****        55.7500  77.2500  46.5000 Du        
   6951 ****        55.7500  77.5000  45.7500 Du        
   6952 ****        55.7500  77.5000  46.0000 Du        
   6953 ****        55.7500  77.5000  46.2500 Du        
   6954 ****        55.7500  77.5000  46.5000 Du        
   6955 ****        55.7500  77.7500  46.2500 Du        
   6956 ****        55.7500  77.7500  46.5000 Du        
   6957 ****        55.7500  78.0000  46.5000 Du        
   6958 ****        55.7500  78.0000  46.7500 Du        
   6959 ****        56.0000  48.2500  66.7500 Du        
   6960 ****        56.0000  61.2500  47.5000 Du        
   6961 ****        56.0000  61.2500  47.7500 Du        
   6962 ****        56.0000  61.5000  47.2500 Du        
   6963 ****        56.0000  61.5000  47.5000 Du        
   6964 ****        56.0000  61.5000  47.7500 Du        
   6965 ****        56.0000  61.5000  48.0000 Du        
   6966 ****        56.0000  61.7500  47.2500 Du        
   6967 ****        56.0000  61.7500  47.5000 Du        
   6968 ****        56.0000  61.7500  47.7500 Du        
   6969 ****        56.0000  61.7500  48.0000 Du        
   6970 ****        56.0000  61.7500  48.2500 Du        
   6971 ****        56.0000  61.7500  48.5000 Du        
   6972 ****        56.0000  62.0000  47.0000 Du        
   6973 ****        56.0000  62.0000  47.2500 Du        
   6974 ****        56.0000  62.0000  47.5000 Du        
   6975 ****        56.0000  62.0000  47.7500 Du        
   6976 ****        56.0000  62.0000  48.0000 Du        
   6977 ****        56.0000  62.0000  48.2500 Du        
   6978 ****        56.0000  62.0000  48.5000 Du        
   6979 ****        56.0000  62.0000  48.7500 Du        
   6980 ****        56.0000  62.2500  47.2500 Du        
   6981 ****        56.0000  62.2500  47.5000 Du        
   6982 ****        56.0000  62.2500  47.7500 Du        
   6983 ****        56.0000  62.2500  48.0000 Du        
   6984 ****        56.0000  62.2500  48.2500 Du        
   6985 ****        56.0000  62.2500  48.5000 Du        
   6986 ****        56.0000  62.2500  48.7500 Du        
   6987 ****        56.0000  62.2500  49.0000 Du        
   6988 ****        56.0000  62.5000  47.5000 Du        
   6989 ****        56.0000  62.5000  47.7500 Du        
   6990 ****        56.0000  62.5000  48.0000 Du        
   6991 ****        56.0000  62.5000  48.2500 Du        
   6992 ****        56.0000  62.5000  48.5000 Du        
   6993 ****        56.0000  62.5000  48.7500 Du        
   6994 ****        56.0000  62.5000  49.0000 Du        
   6995 ****        56.0000  62.7500  47.5000 Du        
   6996 ****        56.0000  62.7500  47.7500 Du        
   6997 ****        56.0000  62.7500  48.0000 Du        
   6998 ****        56.0000  62.7500  48.2500 Du        
   6999 ****        56.0000  62.7500  48.5000 Du        
   7000 ****        56.0000  62.7500  48.7500 Du        
   7001 ****        56.0000  62.7500  49.0000 Du        
   7002 ****        56.0000  63.0000  47.5000 Du        
   7003 ****        56.0000  63.0000  47.7500 Du        
   7004 ****        56.0000  63.0000  48.0000 Du        
   7005 ****        56.0000  63.0000  48.2500 Du        
   7006 ****        56.0000  63.0000  48.5000 Du        
   7007 ****        56.0000  63.0000  48.7500 Du        
   7008 ****        56.0000  63.2500  47.5000 Du        
   7009 ****        56.0000  63.2500  47.7500 Du        
   7010 ****        56.0000  63.2500  48.0000 Du        
   7011 ****        56.0000  63.2500  48.2500 Du        
   7012 ****        56.0000  63.2500  48.5000 Du        
   7013 ****        56.0000  63.2500  48.7500 Du        
   7014 ****        56.0000  63.5000  47.5000 Du        
   7015 ****        56.0000  63.5000  47.7500 Du        
   7016 ****        56.0000  63.5000  48.0000 Du        
   7017 ****        56.0000  63.5000  48.2500 Du        
   7018 ****        56.0000  63.5000  48.5000 Du        
   7019 ****        56.0000  63.5000  48.7500 Du        
   7020 ****        56.0000  63.7500  47.5000 Du        
   7021 ****        56.0000  63.7500  47.7500 Du        
   7022 ****        56.0000  63.7500  48.0000 Du        
   7023 ****        56.0000  63.7500  48.2500 Du        
   7024 ****        56.0000  63.7500  48.5000 Du        
   7025 ****        56.0000  64.0000  47.7500 Du        
   7026 ****        56.0000  64.0000  48.0000 Du        
   7027 ****        56.0000  64.0000  48.2500 Du        
   7028 ****        56.0000  72.7500  47.0000 Du        
   7029 ****        56.0000  73.0000  47.0000 Du        
   7030 ****        56.0000  73.2500  46.7500 Du        
   7031 ****        56.0000  73.2500  47.0000 Du        
   7032 ****        56.0000  73.5000  46.7500 Du        
   7033 ****        56.0000  73.7500  46.7500 Du        
   7034 ****        56.0000  73.7500  47.0000 Du        
   7035 ****        56.0000  74.0000  46.7500 Du        
   7036 ****        56.0000  74.0000  47.0000 Du        
   7037 ****        56.0000  74.2500  46.7500 Du        
   7038 ****        56.0000  76.7500  46.2500 Du        
   7039 ****        56.0000  76.7500  46.5000 Du        
   7040 ****        56.0000  77.0000  46.0000 Du        
   7041 ****        56.0000  77.0000  46.2500 Du        
   7042 ****        56.0000  77.0000  46.5000 Du        
   7043 ****        56.0000  77.2500  46.0000 Du        
   7044 ****        56.0000  77.2500  46.2500 Du        
   7045 ****        56.0000  77.2500  46.5000 Du        
   7046 ****        56.0000  77.5000  45.7500 Du        
   7047 ****        56.0000  77.5000  46.0000 Du        
   7048 ****        56.0000  77.5000  46.2500 Du        
   7049 ****        56.0000  77.5000  46.5000 Du        
   7050 ****        56.0000  77.7500  46.2500 Du        
   7051 ****        56.0000  77.7500  46.5000 Du        
   7052 ****        56.0000  78.0000  46.5000 Du        
   7053 ****        56.0000  78.0000  46.7500 Du        
   7054 ****        56.2500  48.2500  66.7500 Du        
   7055 ****        56.2500  61.0000  47.2500 Du        
   7056 ****        56.2500  61.0000  47.5000 Du        
   7057 ****        56.2500  61.2500  47.2500 Du        
   7058 ****        56.2500  61.2500  47.5000 Du        
   7059 ****        56.2500  61.2500  47.7500 Du        
   7060 ****        56.2500  61.5000  47.2500 Du        
   7061 ****        56.2500  61.5000  47.5000 Du        
   7062 ****        56.2500  61.5000  47.7500 Du        
   7063 ****        56.2500  61.5000  48.0000 Du        
   7064 ****        56.2500  61.7500  47.2500 Du        
   7065 ****        56.2500  61.7500  47.5000 Du        
   7066 ****        56.2500  61.7500  47.7500 Du        
   7067 ****        56.2500  61.7500  48.0000 Du        
   7068 ****        56.2500  61.7500  48.2500 Du        
   7069 ****        56.2500  61.7500  48.5000 Du        
   7070 ****        56.2500  62.0000  47.2500 Du        
   7071 ****        56.2500  62.0000  47.5000 Du        
   7072 ****        56.2500  62.0000  47.7500 Du        
   7073 ****        56.2500  62.0000  48.0000 Du        
   7074 ****        56.2500  62.0000  48.2500 Du        
   7075 ****        56.2500  62.0000  48.5000 Du        
   7076 ****        56.2500  62.0000  48.7500 Du        
   7077 ****        56.2500  62.2500  47.2500 Du        
   7078 ****        56.2500  62.2500  47.5000 Du        
   7079 ****        56.2500  62.2500  47.7500 Du        
   7080 ****        56.2500  62.2500  48.0000 Du        
   7081 ****        56.2500  62.2500  48.2500 Du        
   7082 ****        56.2500  62.2500  48.5000 Du        
   7083 ****        56.2500  62.2500  48.7500 Du        
   7084 ****        56.2500  62.2500  49.0000 Du        
   7085 ****        56.2500  62.5000  47.5000 Du        
   7086 ****        56.2500  62.5000  47.7500 Du        
   7087 ****        56.2500  62.5000  48.0000 Du        
   7088 ****        56.2500  62.5000  48.2500 Du        
   7089 ****        56.2500  62.5000  48.5000 Du        
   7090 ****        56.2500  62.5000  48.7500 Du        
   7091 ****        56.2500  62.5000  49.0000 Du        
   7092 ****        56.2500  62.7500  47.5000 Du        
   7093 ****        56.2500  62.7500  47.7500 Du        
   7094 ****        56.2500  62.7500  48.0000 Du        
   7095 ****        56.2500  62.7500  48.2500 Du        
   7096 ****        56.2500  62.7500  48.5000 Du        
   7097 ****        56.2500  62.7500  48.7500 Du        
   7098 ****        56.2500  62.7500  49.0000 Du        
   7099 ****        56.2500  63.0000  47.7500 Du        
   7100 ****        56.2500  63.0000  48.0000 Du        
   7101 ****        56.2500  63.0000  48.2500 Du        
   7102 ****        56.2500  63.0000  48.5000 Du        
   7103 ****        56.2500  63.0000  48.7500 Du        
   7104 ****        56.2500  63.0000  49.0000 Du        
   7105 ****        56.2500  63.2500  47.7500 Du        
   7106 ****        56.2500  63.2500  48.0000 Du        
   7107 ****        56.2500  63.2500  48.2500 Du        
   7108 ****        56.2500  63.2500  48.5000 Du        
   7109 ****        56.2500  63.2500  48.7500 Du        
   7110 ****        56.2500  63.5000  47.7500 Du        
   7111 ****        56.2500  63.5000  48.0000 Du        
   7112 ****        56.2500  63.5000  48.2500 Du        
   7113 ****        56.2500  63.5000  48.5000 Du        
   7114 ****        56.2500  63.5000  48.7500 Du        
   7115 ****        56.2500  63.7500  48.0000 Du        
   7116 ****        56.2500  63.7500  48.2500 Du        
   7117 ****        56.2500  63.7500  48.5000 Du        
   7118 ****        56.2500  76.7500  46.2500 Du        
   7119 ****        56.2500  76.7500  46.5000 Du        
   7120 ****        56.2500  77.0000  46.2500 Du        
   7121 ****        56.2500  77.0000  46.5000 Du        
   7122 ****        56.2500  77.2500  46.0000 Du        
   7123 ****        56.2500  77.2500  46.2500 Du        
   7124 ****        56.2500  77.2500  46.5000 Du        
   7125 ****        56.2500  77.5000  45.7500 Du        
   7126 ****        56.2500  77.5000  46.0000 Du        
   7127 ****        56.2500  77.5000  46.2500 Du        
   7128 ****        56.2500  77.5000  46.5000 Du        
   7129 ****        56.2500  77.7500  46.2500 Du        
   7130 ****        56.2500  77.7500  46.5000 Du        
   7131 ****        56.2500  77.7500  46.7500 Du        
   7132 ****        56.2500  78.0000  46.5000 Du        
   7133 ****        56.2500  78.0000  46.7500 Du        
   7134 ****        56.5000  60.5000  47.0000 Du        
   7135 ****        56.5000  60.5000  47.2500 Du        
   7136 ****        56.5000  60.7500  46.7500 Du        
   7137 ****        56.5000  60.7500  47.0000 Du        
   7138 ****        56.5000  60.7500  47.2500 Du        
   7139 ****        56.5000  60.7500  47.5000 Du        
   7140 ****        56.5000  61.0000  46.7500 Du        
   7141 ****        56.5000  61.0000  47.0000 Du        
   7142 ****        56.5000  61.0000  47.2500 Du        
   7143 ****        56.5000  61.0000  47.5000 Du        
   7144 ****        56.5000  61.0000  47.7500 Du        
   7145 ****        56.5000  61.2500  46.7500 Du        
   7146 ****        56.5000  61.2500  47.0000 Du        
   7147 ****        56.5000  61.2500  47.2500 Du        
   7148 ****        56.5000  61.2500  47.5000 Du        
   7149 ****        56.5000  61.2500  47.7500 Du        
   7150 ****        56.5000  61.2500  48.0000 Du        
   7151 ****        56.5000  61.5000  46.7500 Du        
   7152 ****        56.5000  61.5000  47.0000 Du        
   7153 ****        56.5000  61.5000  47.2500 Du        
   7154 ****        56.5000  61.5000  47.5000 Du        
   7155 ****        56.5000  61.5000  47.7500 Du        
   7156 ****        56.5000  61.5000  48.0000 Du        
   7157 ****        56.5000  61.5000  48.2500 Du        
   7158 ****        56.5000  61.7500  47.0000 Du        
   7159 ****        56.5000  61.7500  47.2500 Du        
   7160 ****        56.5000  61.7500  47.5000 Du        
   7161 ****        56.5000  61.7500  47.7500 Du        
   7162 ****        56.5000  61.7500  48.0000 Du        
   7163 ****        56.5000  61.7500  48.2500 Du        
   7164 ****        56.5000  61.7500  48.5000 Du        
   7165 ****        56.5000  62.0000  47.2500 Du        
   7166 ****        56.5000  62.0000  47.5000 Du        
   7167 ****        56.5000  62.0000  47.7500 Du        
   7168 ****        56.5000  62.0000  48.0000 Du        
   7169 ****        56.5000  62.0000  48.2500 Du        
   7170 ****        56.5000  62.0000  48.5000 Du        
   7171 ****        56.5000  62.0000  48.7500 Du        
   7172 ****        56.5000  62.2500  47.5000 Du        
   7173 ****        56.5000  62.2500  47.7500 Du        
   7174 ****        56.5000  62.2500  48.0000 Du        
   7175 ****        56.5000  62.2500  48.2500 Du        
   7176 ****        56.5000  62.2500  48.5000 Du        
   7177 ****        56.5000  62.2500  48.7500 Du        
   7178 ****        56.5000  62.2500  49.0000 Du        
   7179 ****        56.5000  62.5000  47.5000 Du        
   7180 ****        56.5000  62.5000  47.7500 Du        
   7181 ****        56.5000  62.5000  48.0000 Du        
   7182 ****        56.5000  62.5000  48.2500 Du        
   7183 ****        56.5000  62.5000  48.5000 Du        
   7184 ****        56.5000  62.5000  48.7500 Du        
   7185 ****        56.5000  62.5000  49.0000 Du        
   7186 ****        56.5000  62.7500  47.7500 Du        
   7187 ****        56.5000  62.7500  48.0000 Du        
   7188 ****        56.5000  62.7500  48.2500 Du        
   7189 ****        56.5000  62.7500  48.5000 Du        
   7190 ****        56.5000  62.7500  48.7500 Du        
   7191 ****        56.5000  62.7500  49.0000 Du        
   7192 ****        56.5000  63.0000  47.7500 Du        
   7193 ****        56.5000  63.0000  48.0000 Du        
   7194 ****        56.5000  63.0000  48.2500 Du        
   7195 ****        56.5000  63.0000  48.5000 Du        
   7196 ****        56.5000  63.0000  48.7500 Du        
   7197 ****        56.5000  63.0000  49.0000 Du        
   7198 ****        56.5000  63.2500  48.0000 Du        
   7199 ****        56.5000  63.2500  48.2500 Du        
   7200 ****        56.5000  63.2500  48.5000 Du        
   7201 ****        56.5000  63.2500  48.7500 Du        
   7202 ****        56.5000  63.5000  48.2500 Du        
   7203 ****        56.5000  63.5000  48.5000 Du        
   7204 ****        56.5000  63.5000  48.7500 Du        
   7205 ****        56.5000  63.7500  48.5000 Du        
   7206 ****        56.5000  76.7500  46.2500 Du        
   7207 ****        56.5000  76.7500  46.5000 Du        
   7208 ****        56.5000  77.0000  46.2500 Du        
   7209 ****        56.5000  77.0000  46.5000 Du        
   7210 ****        56.5000  77.2500  46.0000 Du        
   7211 ****        56.5000  77.2500  46.2500 Du        
   7212 ****        56.5000  77.2500  46.5000 Du        
   7213 ****        56.5000  77.5000  45.7500 Du        
   7214 ****        56.5000  77.5000  46.0000 Du        
   7215 ****        56.5000  77.5000  46.2500 Du        
   7216 ****        56.5000  77.5000  46.5000 Du        
   7217 ****        56.5000  77.5000  46.7500 Du        
   7218 ****        56.5000  77.7500  46.2500 Du        
   7219 ****        56.5000  77.7500  46.5000 Du        
   7220 ****        56.5000  77.7500  46.7500 Du        
   7221 ****        56.5000  78.0000  46.5000 Du        
   7222 ****        56.5000  78.0000  46.7500 Du        
   7223 ****        56.7500  48.5000  66.7500 Du        
   7224 ****        56.7500  60.0000  47.0000 Du        
   7225 ****        56.7500  60.0000  47.2500 Du        
   7226 ****        56.7500  60.2500  47.0000 Du        
   7227 ****        56.7500  60.2500  47.2500 Du        
   7228 ****        56.7500  60.5000  46.7500 Du        
   7229 ****        56.7500  60.5000  47.0000 Du        
   7230 ****        56.7500  60.5000  47.2500 Du        
   7231 ****        56.7500  60.5000  47.5000 Du        
   7232 ****        56.7500  60.7500  46.7500 Du        
   7233 ****        56.7500  60.7500  47.0000 Du        
   7234 ****        56.7500  60.7500  47.2500 Du        
   7235 ****        56.7500  60.7500  47.5000 Du        
   7236 ****        56.7500  60.7500  47.7500 Du        
   7237 ****        56.7500  61.0000  46.7500 Du        
   7238 ****        56.7500  61.0000  47.0000 Du        
   7239 ****        56.7500  61.0000  47.2500 Du        
   7240 ****        56.7500  61.0000  47.5000 Du        
   7241 ****        56.7500  61.0000  47.7500 Du        
   7242 ****        56.7500  61.2500  46.7500 Du        
   7243 ****        56.7500  61.2500  47.0000 Du        
   7244 ****        56.7500  61.2500  47.2500 Du        
   7245 ****        56.7500  61.2500  47.5000 Du        
   7246 ****        56.7500  61.2500  47.7500 Du        
   7247 ****        56.7500  61.2500  48.0000 Du        
   7248 ****        56.7500  61.5000  46.7500 Du        
   7249 ****        56.7500  61.5000  47.0000 Du        
   7250 ****        56.7500  61.5000  47.2500 Du        
   7251 ****        56.7500  61.5000  47.5000 Du        
   7252 ****        56.7500  61.5000  47.7500 Du        
   7253 ****        56.7500  61.5000  48.0000 Du        
   7254 ****        56.7500  61.5000  48.2500 Du        
   7255 ****        56.7500  61.7500  47.0000 Du        
   7256 ****        56.7500  61.7500  47.2500 Du        
   7257 ****        56.7500  61.7500  47.5000 Du        
   7258 ****        56.7500  61.7500  47.7500 Du        
   7259 ****        56.7500  61.7500  48.0000 Du        
   7260 ****        56.7500  61.7500  48.2500 Du        
   7261 ****        56.7500  61.7500  48.5000 Du        
   7262 ****        56.7500  62.0000  47.2500 Du        
   7263 ****        56.7500  62.0000  47.5000 Du        
   7264 ****        56.7500  62.0000  47.7500 Du        
   7265 ****        56.7500  62.0000  48.0000 Du        
   7266 ****        56.7500  62.0000  48.2500 Du        
   7267 ****        56.7500  62.0000  48.5000 Du        
   7268 ****        56.7500  62.0000  48.7500 Du        
   7269 ****        56.7500  62.2500  47.5000 Du        
   7270 ****        56.7500  62.2500  47.7500 Du        
   7271 ****        56.7500  62.2500  48.0000 Du        
   7272 ****        56.7500  62.2500  48.2500 Du        
   7273 ****        56.7500  62.2500  48.5000 Du        
   7274 ****        56.7500  62.2500  48.7500 Du        
   7275 ****        56.7500  62.5000  47.7500 Du        
   7276 ****        56.7500  62.5000  48.0000 Du        
   7277 ****        56.7500  62.5000  48.2500 Du        
   7278 ****        56.7500  62.5000  48.5000 Du        
   7279 ****        56.7500  62.5000  48.7500 Du        
   7280 ****        56.7500  62.7500  47.7500 Du        
   7281 ****        56.7500  62.7500  48.0000 Du        
   7282 ****        56.7500  62.7500  48.2500 Du        
   7283 ****        56.7500  62.7500  48.5000 Du        
   7284 ****        56.7500  62.7500  48.7500 Du        
   7285 ****        56.7500  63.0000  48.0000 Du        
   7286 ****        56.7500  63.0000  48.2500 Du        
   7287 ****        56.7500  63.0000  48.5000 Du        
   7288 ****        56.7500  63.0000  48.7500 Du        
   7289 ****        56.7500  63.2500  48.2500 Du        
   7290 ****        56.7500  63.2500  48.5000 Du        
   7291 ****        56.7500  63.2500  48.7500 Du        
   7292 ****        56.7500  76.5000  46.5000 Du        
   7293 ****        56.7500  76.7500  46.2500 Du        
   7294 ****        56.7500  76.7500  46.5000 Du        
   7295 ****        56.7500  77.0000  46.2500 Du        
   7296 ****        56.7500  77.0000  46.5000 Du        
   7297 ****        56.7500  77.0000  46.7500 Du        
   7298 ****        56.7500  77.2500  46.0000 Du        
   7299 ****        56.7500  77.2500  46.2500 Du        
   7300 ****        56.7500  77.2500  46.5000 Du        
   7301 ****        56.7500  77.2500  46.7500 Du        
   7302 ****        56.7500  77.5000  46.0000 Du        
   7303 ****        56.7500  77.5000  46.2500 Du        
   7304 ****        56.7500  77.5000  46.5000 Du        
   7305 ****        56.7500  77.5000  46.7500 Du        
   7306 ****        56.7500  77.7500  46.2500 Du        
   7307 ****        56.7500  77.7500  46.5000 Du        
   7308 ****        56.7500  77.7500  46.7500 Du        
   7309 ****        56.7500  78.0000  46.7500 Du        
   7310 ****        57.0000  48.5000  66.7500 Du        
   7311 ****        57.0000  51.7500  45.0000 Du        
   7312 ****        57.0000  52.0000  45.0000 Du        
   7313 ****        57.0000  52.0000  45.2500 Du        
   7314 ****        57.0000  52.2500  45.0000 Du        
   7315 ****        57.0000  52.2500  45.2500 Du        
   7316 ****        57.0000  53.2500  46.5000 Du        
   7317 ****        57.0000  53.5000  46.5000 Du        
   7318 ****        57.0000  53.7500  46.5000 Du        
   7319 ****        57.0000  53.7500  46.7500 Du        
   7320 ****        57.0000  59.2500  47.0000 Du        
   7321 ****        57.0000  59.5000  47.0000 Du        
   7322 ****        57.0000  59.7500  47.0000 Du        
   7323 ****        57.0000  59.7500  47.2500 Du        
   7324 ****        57.0000  60.0000  46.7500 Du        
   7325 ****        57.0000  60.0000  47.0000 Du        
   7326 ****        57.0000  60.0000  47.2500 Du        
   7327 ****        57.0000  60.0000  47.5000 Du        
   7328 ****        57.0000  60.2500  46.7500 Du        
   7329 ****        57.0000  60.2500  47.0000 Du        
   7330 ****        57.0000  60.2500  47.2500 Du        
   7331 ****        57.0000  60.2500  47.5000 Du        
   7332 ****        57.0000  60.5000  46.7500 Du        
   7333 ****        57.0000  60.5000  47.0000 Du        
   7334 ****        57.0000  60.5000  47.2500 Du        
   7335 ****        57.0000  60.5000  47.5000 Du        
   7336 ****        57.0000  60.5000  47.7500 Du        
   7337 ****        57.0000  60.7500  46.5000 Du        
   7338 ****        57.0000  60.7500  46.7500 Du        
   7339 ****        57.0000  60.7500  47.0000 Du        
   7340 ****        57.0000  60.7500  47.2500 Du        
   7341 ****        57.0000  60.7500  47.5000 Du        
   7342 ****        57.0000  60.7500  47.7500 Du        
   7343 ****        57.0000  61.0000  46.7500 Du        
   7344 ****        57.0000  61.0000  47.0000 Du        
   7345 ****        57.0000  61.0000  47.2500 Du        
   7346 ****        57.0000  61.0000  47.5000 Du        
   7347 ****        57.0000  61.0000  47.7500 Du        
   7348 ****        57.0000  61.0000  48.0000 Du        
   7349 ****        57.0000  61.2500  46.7500 Du        
   7350 ****        57.0000  61.2500  47.0000 Du        
   7351 ****        57.0000  61.2500  47.2500 Du        
   7352 ****        57.0000  61.2500  47.5000 Du        
   7353 ****        57.0000  61.2500  47.7500 Du        
   7354 ****        57.0000  61.2500  48.0000 Du        
   7355 ****        57.0000  61.2500  48.2500 Du        
   7356 ****        57.0000  61.5000  46.7500 Du        
   7357 ****        57.0000  61.5000  47.0000 Du        
   7358 ****        57.0000  61.5000  47.2500 Du        
   7359 ****        57.0000  61.5000  47.5000 Du        
   7360 ****        57.0000  61.5000  47.7500 Du        
   7361 ****        57.0000  61.5000  48.0000 Du        
   7362 ****        57.0000  61.5000  48.2500 Du        
   7363 ****        57.0000  61.7500  47.0000 Du        
   7364 ****        57.0000  61.7500  47.2500 Du        
   7365 ****        57.0000  61.7500  47.5000 Du        
   7366 ****        57.0000  61.7500  47.7500 Du        
   7367 ****        57.0000  61.7500  48.0000 Du        
   7368 ****        57.0000  61.7500  48.2500 Du        
   7369 ****        57.0000  62.0000  47.2500 Du        
   7370 ****        57.0000  62.0000  47.5000 Du        
   7371 ****        57.0000  62.0000  47.7500 Du        
   7372 ****        57.0000  62.0000  48.0000 Du        
   7373 ****        57.0000  62.0000  48.2500 Du        
   7374 ****        57.0000  62.0000  48.5000 Du        
   7375 ****        57.0000  62.2500  47.5000 Du        
   7376 ****        57.0000  62.2500  47.7500 Du        
   7377 ****        57.0000  62.2500  48.0000 Du        
   7378 ****        57.0000  62.2500  48.2500 Du        
   7379 ****        57.0000  62.2500  48.5000 Du        
   7380 ****        57.0000  62.5000  47.7500 Du        
   7381 ****        57.0000  62.5000  48.0000 Du        
   7382 ****        57.0000  62.5000  48.2500 Du        
   7383 ****        57.0000  62.5000  48.5000 Du        
   7384 ****        57.0000  62.7500  48.0000 Du        
   7385 ****        57.0000  62.7500  48.2500 Du        
   7386 ****        57.0000  62.7500  48.5000 Du        
   7387 ****        57.0000  76.0000  46.7500 Du        
   7388 ****        57.0000  76.2500  46.7500 Du        
   7389 ****        57.0000  76.5000  46.5000 Du        
   7390 ****        57.0000  76.5000  46.7500 Du        
   7391 ****        57.0000  76.7500  46.2500 Du        
   7392 ****        57.0000  76.7500  46.5000 Du        
   7393 ****        57.0000  76.7500  46.7500 Du        
   7394 ****        57.0000  77.0000  46.2500 Du        
   7395 ****        57.0000  77.0000  46.5000 Du        
   7396 ****        57.0000  77.0000  46.7500 Du        
   7397 ****        57.0000  77.2500  46.0000 Du        
   7398 ****        57.0000  77.2500  46.2500 Du        
   7399 ****        57.0000  77.2500  46.5000 Du        
   7400 ****        57.0000  77.2500  46.7500 Du        
   7401 ****        57.0000  77.5000  46.0000 Du        
   7402 ****        57.0000  77.5000  46.2500 Du        
   7403 ****        57.0000  77.5000  46.5000 Du        
   7404 ****        57.0000  77.5000  46.7500 Du        
   7405 ****        57.0000  77.7500  46.2500 Du        
   7406 ****        57.0000  77.7500  46.5000 Du        
   7407 ****        57.0000  77.7500  46.7500 Du        
   7408 ****        57.0000  78.0000  46.7500 Du        
   7409 ****        57.2500  51.2500  45.0000 Du        
   7410 ****        57.2500  51.7500  45.0000 Du        
   7411 ****        57.2500  52.0000  45.0000 Du        
   7412 ****        57.2500  52.0000  45.2500 Du        
   7413 ****        57.2500  52.2500  45.0000 Du        
   7414 ****        57.2500  52.2500  45.2500 Du        
   7415 ****        57.2500  52.2500  45.5000 Du        
   7416 ****        57.2500  53.0000  46.0000 Du        
   7417 ****        57.2500  53.2500  46.2500 Du        
   7418 ****        57.2500  53.2500  46.5000 Du        
   7419 ****        57.2500  53.5000  46.2500 Du        
   7420 ****        57.2500  53.5000  46.5000 Du        
   7421 ****        57.2500  53.5000  46.7500 Du        
   7422 ****        57.2500  53.7500  46.5000 Du        
   7423 ****        57.2500  53.7500  46.7500 Du        
   7424 ****        57.2500  54.0000  46.5000 Du        
   7425 ****        57.2500  59.0000  47.0000 Du        
   7426 ****        57.2500  59.0000  47.2500 Du        
   7427 ****        57.2500  59.2500  47.0000 Du        
   7428 ****        57.2500  59.2500  47.2500 Du        
   7429 ****        57.2500  59.5000  47.0000 Du        
   7430 ****        57.2500  59.5000  47.2500 Du        
   7431 ****        57.2500  59.7500  46.7500 Du        
   7432 ****        57.2500  59.7500  47.0000 Du        
   7433 ****        57.2500  59.7500  47.2500 Du        
   7434 ****        57.2500  59.7500  47.5000 Du        
   7435 ****        57.2500  60.0000  46.7500 Du        
   7436 ****        57.2500  60.0000  47.0000 Du        
   7437 ****        57.2500  60.0000  47.2500 Du        
   7438 ****        57.2500  60.0000  47.5000 Du        
   7439 ****        57.2500  60.0000  47.7500 Du        
   7440 ****        57.2500  60.2500  46.7500 Du        
   7441 ****        57.2500  60.2500  47.0000 Du        
   7442 ****        57.2500  60.2500  47.2500 Du        
   7443 ****        57.2500  60.2500  47.5000 Du        
   7444 ****        57.2500  60.2500  47.7500 Du        
   7445 ****        57.2500  60.5000  46.5000 Du        
   7446 ****        57.2500  60.5000  46.7500 Du        
   7447 ****        57.2500  60.5000  47.0000 Du        
   7448 ****        57.2500  60.5000  47.2500 Du        
   7449 ****        57.2500  60.5000  47.5000 Du        
   7450 ****        57.2500  60.5000  47.7500 Du        
   7451 ****        57.2500  60.7500  46.5000 Du        
   7452 ****        57.2500  60.7500  46.7500 Du        
   7453 ****        57.2500  60.7500  47.0000 Du        
   7454 ****        57.2500  60.7500  47.2500 Du        
   7455 ****        57.2500  60.7500  47.5000 Du        
   7456 ****        57.2500  60.7500  47.7500 Du        
   7457 ****        57.2500  60.7500  48.0000 Du        
   7458 ****        57.2500  61.0000  46.5000 Du        
   7459 ****        57.2500  61.0000  46.7500 Du        
   7460 ****        57.2500  61.0000  47.0000 Du        
   7461 ****        57.2500  61.0000  47.2500 Du        
   7462 ****        57.2500  61.0000  47.5000 Du        
   7463 ****        57.2500  61.0000  47.7500 Du        
   7464 ****        57.2500  61.0000  48.0000 Du        
   7465 ****        57.2500  61.2500  46.7500 Du        
   7466 ****        57.2500  61.2500  47.0000 Du        
   7467 ****        57.2500  61.2500  47.2500 Du        
   7468 ****        57.2500  61.2500  47.5000 Du        
   7469 ****        57.2500  61.2500  47.7500 Du        
   7470 ****        57.2500  61.2500  48.0000 Du        
   7471 ****        57.2500  61.2500  48.2500 Du        
   7472 ****        57.2500  61.5000  47.0000 Du        
   7473 ****        57.2500  61.5000  47.2500 Du        
   7474 ****        57.2500  61.5000  47.5000 Du        
   7475 ****        57.2500  61.5000  47.7500 Du        
   7476 ****        57.2500  61.5000  48.0000 Du        
   7477 ****        57.2500  61.5000  48.2500 Du        
   7478 ****        57.2500  61.7500  47.2500 Du        
   7479 ****        57.2500  61.7500  47.5000 Du        
   7480 ****        57.2500  61.7500  47.7500 Du        
   7481 ****        57.2500  61.7500  48.0000 Du        
   7482 ****        57.2500  61.7500  48.2500 Du        
   7483 ****        57.2500  62.0000  47.5000 Du        
   7484 ****        57.2500  62.0000  47.7500 Du        
   7485 ****        57.2500  62.0000  48.0000 Du        
   7486 ****        57.2500  62.0000  48.2500 Du        
   7487 ****        57.2500  62.2500  47.7500 Du        
   7488 ****        57.2500  62.2500  48.0000 Du        
   7489 ****        57.2500  62.2500  48.2500 Du        
   7490 ****        57.2500  76.0000  46.7500 Du        
   7491 ****        57.2500  76.2500  46.7500 Du        
   7492 ****        57.2500  76.5000  46.5000 Du        
   7493 ****        57.2500  76.5000  46.7500 Du        
   7494 ****        57.2500  76.7500  46.2500 Du        
   7495 ****        57.2500  76.7500  46.5000 Du        
   7496 ****        57.2500  76.7500  46.7500 Du        
   7497 ****        57.2500  77.0000  46.2500 Du        
   7498 ****        57.2500  77.0000  46.5000 Du        
   7499 ****        57.2500  77.0000  46.7500 Du        
   7500 ****        57.2500  77.2500  46.0000 Du        
   7501 ****        57.2500  77.2500  46.2500 Du        
   7502 ****        57.2500  77.2500  46.5000 Du        
   7503 ****        57.2500  77.2500  46.7500 Du        
   7504 ****        57.2500  77.5000  46.0000 Du        
   7505 ****        57.2500  77.5000  46.2500 Du        
   7506 ****        57.2500  77.5000  46.5000 Du        
   7507 ****        57.2500  77.5000  46.7500 Du        
   7508 ****        57.2500  77.7500  46.5000 Du        
   7509 ****        57.2500  77.7500  46.7500 Du        
   7510 ****        57.2500  78.0000  46.7500 Du        
   7511 ****        57.5000  51.2500  45.0000 Du        
   7512 ****        57.5000  51.5000  45.0000 Du        
   7513 ****        57.5000  51.5000  45.2500 Du        
   7514 ****        57.5000  51.7500  45.0000 Du        
   7515 ****        57.5000  51.7500  45.2500 Du        
   7516 ****        57.5000  51.7500  45.5000 Du        
   7517 ****        57.5000  52.0000  45.0000 Du        
   7518 ****        57.5000  52.0000  45.2500 Du        
   7519 ****        57.5000  52.0000  45.5000 Du        
   7520 ****        57.5000  52.2500  45.0000 Du        
   7521 ****        57.5000  52.2500  45.2500 Du        
   7522 ****        57.5000  52.2500  45.5000 Du        
   7523 ****        57.5000  52.2500  45.7500 Du        
   7524 ****        57.5000  52.5000  45.0000 Du        
   7525 ****        57.5000  52.5000  45.2500 Du        
   7526 ****        57.5000  52.5000  45.5000 Du        
   7527 ****        57.5000  52.5000  45.7500 Du        
   7528 ****        57.5000  52.5000  46.0000 Du        
   7529 ****        57.5000  52.7500  45.0000 Du        
   7530 ****        57.5000  52.7500  45.2500 Du        
   7531 ****        57.5000  52.7500  45.5000 Du        
   7532 ****        57.5000  52.7500  45.7500 Du        
   7533 ****        57.5000  52.7500  46.0000 Du        
   7534 ****        57.5000  53.0000  45.5000 Du        
   7535 ****        57.5000  53.0000  45.7500 Du        
   7536 ****        57.5000  53.0000  46.0000 Du        
   7537 ****        57.5000  53.0000  46.2500 Du        
   7538 ****        57.5000  53.0000  46.5000 Du        
   7539 ****        57.5000  53.2500  45.5000 Du        
   7540 ****        57.5000  53.2500  45.7500 Du        
   7541 ****        57.5000  53.2500  46.0000 Du        
   7542 ****        57.5000  53.2500  46.2500 Du        
   7543 ****        57.5000  53.2500  46.5000 Du        
   7544 ****        57.5000  53.2500  46.7500 Du        
   7545 ****        57.5000  53.5000  46.2500 Du        
   7546 ****        57.5000  53.5000  46.5000 Du        
   7547 ****        57.5000  53.5000  46.7500 Du        
   7548 ****        57.5000  53.5000  47.0000 Du        
   7549 ****        57.5000  53.7500  46.2500 Du        
   7550 ****        57.5000  53.7500  46.5000 Du        
   7551 ****        57.5000  53.7500  46.7500 Du        
   7552 ****        57.5000  53.7500  47.0000 Du        
   7553 ****        57.5000  54.0000  46.5000 Du        
   7554 ****        57.5000  54.0000  46.7500 Du        
   7555 ****        57.5000  54.2500  46.5000 Du        
   7556 ****        57.5000  54.2500  46.7500 Du        
   7557 ****        57.5000  58.5000  47.0000 Du        
   7558 ****        57.5000  58.7500  47.0000 Du        
   7559 ****        57.5000  58.7500  47.2500 Du        
   7560 ****        57.5000  58.7500  47.5000 Du        
   7561 ****        57.5000  59.0000  46.7500 Du        
   7562 ****        57.5000  59.0000  47.0000 Du        
   7563 ****        57.5000  59.0000  47.2500 Du        
   7564 ****        57.5000  59.0000  47.5000 Du        
   7565 ****        57.5000  59.2500  46.7500 Du        
   7566 ****        57.5000  59.2500  47.0000 Du        
   7567 ****        57.5000  59.2500  47.2500 Du        
   7568 ****        57.5000  59.2500  47.5000 Du        
   7569 ****        57.5000  59.5000  46.5000 Du        
   7570 ****        57.5000  59.5000  46.7500 Du        
   7571 ****        57.5000  59.5000  47.0000 Du        
   7572 ****        57.5000  59.5000  47.2500 Du        
   7573 ****        57.5000  59.5000  47.5000 Du        
   7574 ****        57.5000  59.5000  47.7500 Du        
   7575 ****        57.5000  59.7500  46.5000 Du        
   7576 ****        57.5000  59.7500  46.7500 Du        
   7577 ****        57.5000  59.7500  47.0000 Du        
   7578 ****        57.5000  59.7500  47.2500 Du        
   7579 ****        57.5000  59.7500  47.5000 Du        
   7580 ****        57.5000  59.7500  47.7500 Du        
   7581 ****        57.5000  60.0000  46.5000 Du        
   7582 ****        57.5000  60.0000  46.7500 Du        
   7583 ****        57.5000  60.0000  47.0000 Du        
   7584 ****        57.5000  60.0000  47.2500 Du        
   7585 ****        57.5000  60.0000  47.5000 Du        
   7586 ****        57.5000  60.0000  47.7500 Du        
   7587 ****        57.5000  60.2500  46.5000 Du        
   7588 ****        57.5000  60.2500  46.7500 Du        
   7589 ****        57.5000  60.2500  47.0000 Du        
   7590 ****        57.5000  60.2500  47.2500 Du        
   7591 ****        57.5000  60.2500  47.5000 Du        
   7592 ****        57.5000  60.2500  47.7500 Du        
   7593 ****        57.5000  60.2500  48.0000 Du        
   7594 ****        57.5000  60.5000  46.5000 Du        
   7595 ****        57.5000  60.5000  46.7500 Du        
   7596 ****        57.5000  60.5000  47.0000 Du        
   7597 ****        57.5000  60.5000  47.2500 Du        
   7598 ****        57.5000  60.5000  47.5000 Du        
   7599 ****        57.5000  60.5000  47.7500 Du        
   7600 ****        57.5000  60.5000  48.0000 Du        
   7601 ****        57.5000  60.7500  46.5000 Du        
   7602 ****        57.5000  60.7500  46.7500 Du        
   7603 ****        57.5000  60.7500  47.0000 Du        
   7604 ****        57.5000  60.7500  47.2500 Du        
   7605 ****        57.5000  60.7500  47.5000 Du        
   7606 ****        57.5000  60.7500  47.7500 Du        
   7607 ****        57.5000  60.7500  48.0000 Du        
   7608 ****        57.5000  61.0000  46.5000 Du        
   7609 ****        57.5000  61.0000  46.7500 Du        
   7610 ****        57.5000  61.0000  47.0000 Du        
   7611 ****        57.5000  61.0000  47.2500 Du        
   7612 ****        57.5000  61.0000  47.5000 Du        
   7613 ****        57.5000  61.0000  47.7500 Du        
   7614 ****        57.5000  61.0000  48.0000 Du        
   7615 ****        57.5000  61.2500  46.7500 Du        
   7616 ****        57.5000  61.2500  47.0000 Du        
   7617 ****        57.5000  61.2500  47.2500 Du        
   7618 ****        57.5000  61.2500  47.5000 Du        
   7619 ****        57.5000  61.2500  47.7500 Du        
   7620 ****        57.5000  61.2500  48.0000 Du        
   7621 ****        57.5000  61.5000  47.0000 Du        
   7622 ****        57.5000  61.5000  47.2500 Du        
   7623 ****        57.5000  61.5000  47.5000 Du        
   7624 ****        57.5000  61.5000  47.7500 Du        
   7625 ****        57.5000  61.5000  48.0000 Du        
   7626 ****        57.5000  61.7500  47.2500 Du        
   7627 ****        57.5000  61.7500  47.5000 Du        
   7628 ****        57.5000  61.7500  47.7500 Du        
   7629 ****        57.5000  61.7500  48.0000 Du        
   7630 ****        57.5000  62.0000  47.7500 Du        
   7631 ****        57.5000  62.0000  48.0000 Du        
   7632 ****        57.5000  75.7500  47.0000 Du        
   7633 ****        57.5000  76.0000  46.7500 Du        
   7634 ****        57.5000  76.0000  47.0000 Du        
   7635 ****        57.5000  76.2500  46.7500 Du        
   7636 ****        57.5000  76.2500  47.0000 Du        
   7637 ****        57.5000  76.5000  46.5000 Du        
   7638 ****        57.5000  76.5000  46.7500 Du        
   7639 ****        57.5000  76.7500  46.2500 Du        
   7640 ****        57.5000  76.7500  46.5000 Du        
   7641 ****        57.5000  76.7500  46.7500 Du        
   7642 ****        57.5000  77.0000  46.2500 Du        
   7643 ****        57.5000  77.0000  46.5000 Du        
   7644 ****        57.5000  77.0000  46.7500 Du        
   7645 ****        57.5000  77.2500  46.0000 Du        
   7646 ****        57.5000  77.2500  46.2500 Du        
   7647 ****        57.5000  77.2500  46.5000 Du        
   7648 ****        57.5000  77.2500  46.7500 Du        
   7649 ****        57.5000  77.5000  46.0000 Du        
   7650 ****        57.5000  77.5000  46.2500 Du        
   7651 ****        57.5000  77.5000  46.5000 Du        
   7652 ****        57.5000  77.5000  46.7500 Du        
   7653 ****        57.5000  77.7500  46.5000 Du        
   7654 ****        57.5000  77.7500  46.7500 Du        
   7655 ****        57.7500  51.0000  45.0000 Du        
   7656 ****        57.7500  51.2500  45.0000 Du        
   7657 ****        57.7500  51.2500  45.2500 Du        
   7658 ****        57.7500  51.5000  45.0000 Du        
   7659 ****        57.7500  51.5000  45.2500 Du        
   7660 ****        57.7500  51.7500  45.0000 Du        
   7661 ****        57.7500  51.7500  45.2500 Du        
   7662 ****        57.7500  51.7500  45.5000 Du        
   7663 ****        57.7500  52.0000  45.0000 Du        
   7664 ****        57.7500  52.0000  45.2500 Du        
   7665 ****        57.7500  52.0000  45.5000 Du        
   7666 ****        57.7500  52.0000  45.7500 Du        
   7667 ****        57.7500  52.2500  45.0000 Du        
   7668 ****        57.7500  52.2500  45.2500 Du        
   7669 ****        57.7500  52.2500  45.5000 Du        
   7670 ****        57.7500  52.2500  45.7500 Du        
   7671 ****        57.7500  52.2500  46.0000 Du        
   7672 ****        57.7500  52.5000  45.0000 Du        
   7673 ****        57.7500  52.5000  45.2500 Du        
   7674 ****        57.7500  52.5000  45.5000 Du        
   7675 ****        57.7500  52.5000  45.7500 Du        
   7676 ****        57.7500  52.5000  46.0000 Du        
   7677 ****        57.7500  52.7500  45.0000 Du        
   7678 ****        57.7500  52.7500  45.2500 Du        
   7679 ****        57.7500  52.7500  45.5000 Du        
   7680 ****        57.7500  52.7500  45.7500 Du        
   7681 ****        57.7500  52.7500  46.0000 Du        
   7682 ****        57.7500  52.7500  46.2500 Du        
   7683 ****        57.7500  53.0000  45.0000 Du        
   7684 ****        57.7500  53.0000  45.2500 Du        
   7685 ****        57.7500  53.0000  45.5000 Du        
   7686 ****        57.7500  53.0000  45.7500 Du        
   7687 ****        57.7500  53.0000  46.0000 Du        
   7688 ****        57.7500  53.0000  46.2500 Du        
   7689 ****        57.7500  53.0000  46.5000 Du        
   7690 ****        57.7500  53.2500  45.5000 Du        
   7691 ****        57.7500  53.2500  45.7500 Du        
   7692 ****        57.7500  53.2500  46.0000 Du        
   7693 ****        57.7500  53.2500  46.2500 Du        
   7694 ****        57.7500  53.2500  46.5000 Du        
   7695 ****        57.7500  53.2500  46.7500 Du        
   7696 ****        57.7500  53.2500  47.0000 Du        
   7697 ****        57.7500  53.5000  46.0000 Du        
   7698 ****        57.7500  53.5000  46.2500 Du        
   7699 ****        57.7500  53.5000  46.5000 Du        
   7700 ****        57.7500  53.5000  46.7500 Du        
   7701 ****        57.7500  53.5000  47.0000 Du        
   7702 ****        57.7500  53.5000  47.2500 Du        
   7703 ****        57.7500  53.7500  46.2500 Du        
   7704 ****        57.7500  53.7500  46.5000 Du        
   7705 ****        57.7500  53.7500  46.7500 Du        
   7706 ****        57.7500  53.7500  47.0000 Du        
   7707 ****        57.7500  53.7500  47.2500 Du        
   7708 ****        57.7500  54.0000  46.2500 Du        
   7709 ****        57.7500  54.0000  46.5000 Du        
   7710 ****        57.7500  54.0000  46.7500 Du        
   7711 ****        57.7500  54.0000  47.0000 Du        
   7712 ****        57.7500  54.0000  47.2500 Du        
   7713 ****        57.7500  54.2500  46.5000 Du        
   7714 ****        57.7500  54.2500  46.7500 Du        
   7715 ****        57.7500  54.2500  47.0000 Du        
   7716 ****        57.7500  58.0000  47.0000 Du        
   7717 ****        57.7500  58.2500  47.0000 Du        
   7718 ****        57.7500  58.2500  47.2500 Du        
   7719 ****        57.7500  58.2500  47.5000 Du        
   7720 ****        57.7500  58.5000  46.7500 Du        
   7721 ****        57.7500  58.5000  47.0000 Du        
   7722 ****        57.7500  58.5000  47.2500 Du        
   7723 ****        57.7500  58.5000  47.5000 Du        
   7724 ****        57.7500  58.7500  46.5000 Du        
   7725 ****        57.7500  58.7500  46.7500 Du        
   7726 ****        57.7500  58.7500  47.0000 Du        
   7727 ****        57.7500  58.7500  47.2500 Du        
   7728 ****        57.7500  58.7500  47.5000 Du        
   7729 ****        57.7500  58.7500  47.7500 Du        
   7730 ****        57.7500  59.0000  46.5000 Du        
   7731 ****        57.7500  59.0000  46.7500 Du        
   7732 ****        57.7500  59.0000  47.0000 Du        
   7733 ****        57.7500  59.0000  47.2500 Du        
   7734 ****        57.7500  59.0000  47.5000 Du        
   7735 ****        57.7500  59.0000  47.7500 Du        
   7736 ****        57.7500  59.2500  46.5000 Du        
   7737 ****        57.7500  59.2500  46.7500 Du        
   7738 ****        57.7500  59.2500  47.0000 Du        
   7739 ****        57.7500  59.2500  47.2500 Du        
   7740 ****        57.7500  59.2500  47.5000 Du        
   7741 ****        57.7500  59.2500  47.7500 Du        
   7742 ****        57.7500  59.5000  46.5000 Du        
   7743 ****        57.7500  59.5000  46.7500 Du        
   7744 ****        57.7500  59.5000  47.0000 Du        
   7745 ****        57.7500  59.5000  47.2500 Du        
   7746 ****        57.7500  59.5000  47.5000 Du        
   7747 ****        57.7500  59.5000  47.7500 Du        
   7748 ****        57.7500  59.5000  48.0000 Du        
   7749 ****        57.7500  59.7500  46.2500 Du        
   7750 ****        57.7500  59.7500  46.5000 Du        
   7751 ****        57.7500  59.7500  46.7500 Du        
   7752 ****        57.7500  59.7500  47.0000 Du        
   7753 ****        57.7500  59.7500  47.2500 Du        
   7754 ****        57.7500  59.7500  47.5000 Du        
   7755 ****        57.7500  59.7500  47.7500 Du        
   7756 ****        57.7500  59.7500  48.0000 Du        
   7757 ****        57.7500  60.0000  46.2500 Du        
   7758 ****        57.7500  60.0000  46.5000 Du        
   7759 ****        57.7500  60.0000  46.7500 Du        
   7760 ****        57.7500  60.0000  47.0000 Du        
   7761 ****        57.7500  60.0000  47.2500 Du        
   7762 ****        57.7500  60.0000  47.5000 Du        
   7763 ****        57.7500  60.0000  47.7500 Du        
   7764 ****        57.7500  60.0000  48.0000 Du        
   7765 ****        57.7500  60.2500  46.2500 Du        
   7766 ****        57.7500  60.2500  46.5000 Du        
   7767 ****        57.7500  60.2500  46.7500 Du        
   7768 ****        57.7500  60.2500  47.0000 Du        
   7769 ****        57.7500  60.2500  47.2500 Du        
   7770 ****        57.7500  60.2500  47.5000 Du        
   7771 ****        57.7500  60.2500  47.7500 Du        
   7772 ****        57.7500  60.2500  48.0000 Du        
   7773 ****        57.7500  60.5000  46.2500 Du        
   7774 ****        57.7500  60.5000  46.5000 Du        
   7775 ****        57.7500  60.5000  46.7500 Du        
   7776 ****        57.7500  60.5000  47.0000 Du        
   7777 ****        57.7500  60.5000  47.2500 Du        
   7778 ****        57.7500  60.5000  47.5000 Du        
   7779 ****        57.7500  60.5000  47.7500 Du        
   7780 ****        57.7500  60.5000  48.0000 Du        
   7781 ****        57.7500  60.7500  46.2500 Du        
   7782 ****        57.7500  60.7500  46.5000 Du        
   7783 ****        57.7500  60.7500  46.7500 Du        
   7784 ****        57.7500  60.7500  47.0000 Du        
   7785 ****        57.7500  60.7500  47.2500 Du        
   7786 ****        57.7500  60.7500  47.5000 Du        
   7787 ****        57.7500  60.7500  47.7500 Du        
   7788 ****        57.7500  60.7500  48.0000 Du        
   7789 ****        57.7500  61.0000  46.5000 Du        
   7790 ****        57.7500  61.0000  46.7500 Du        
   7791 ****        57.7500  61.0000  47.0000 Du        
   7792 ****        57.7500  61.0000  47.2500 Du        
   7793 ****        57.7500  61.0000  47.5000 Du        
   7794 ****        57.7500  61.0000  47.7500 Du        
   7795 ****        57.7500  61.0000  48.0000 Du        
   7796 ****        57.7500  61.2500  46.7500 Du        
   7797 ****        57.7500  61.2500  47.0000 Du        
   7798 ****        57.7500  61.2500  47.2500 Du        
   7799 ****        57.7500  61.2500  47.5000 Du        
   7800 ****        57.7500  61.2500  47.7500 Du        
   7801 ****        57.7500  61.2500  48.0000 Du        
   7802 ****        57.7500  61.5000  47.0000 Du        
   7803 ****        57.7500  61.5000  47.2500 Du        
   7804 ****        57.7500  61.5000  47.5000 Du        
   7805 ****        57.7500  61.5000  47.7500 Du        
   7806 ****        57.7500  61.5000  48.0000 Du        
   7807 ****        57.7500  61.7500  47.5000 Du        
   7808 ****        57.7500  61.7500  47.7500 Du        
   7809 ****        57.7500  75.7500  47.0000 Du        
   7810 ****        57.7500  76.0000  46.7500 Du        
   7811 ****        57.7500  76.0000  47.0000 Du        
   7812 ****        57.7500  76.2500  46.7500 Du        
   7813 ****        57.7500  76.2500  47.0000 Du        
   7814 ****        57.7500  76.5000  46.5000 Du        
   7815 ****        57.7500  76.5000  46.7500 Du        
   7816 ****        57.7500  76.7500  46.2500 Du        
   7817 ****        57.7500  76.7500  46.5000 Du        
   7818 ****        57.7500  76.7500  46.7500 Du        
   7819 ****        57.7500  77.0000  46.2500 Du        
   7820 ****        57.7500  77.0000  46.5000 Du        
   7821 ****        57.7500  77.0000  46.7500 Du        
   7822 ****        57.7500  77.2500  46.0000 Du        
   7823 ****        57.7500  77.2500  46.2500 Du        
   7824 ****        57.7500  77.2500  46.5000 Du        
   7825 ****        57.7500  77.2500  46.7500 Du        
   7826 ****        57.7500  77.5000  46.2500 Du        
   7827 ****        57.7500  77.5000  46.5000 Du        
   7828 ****        57.7500  77.5000  46.7500 Du        
   7829 ****        57.7500  77.7500  46.5000 Du        
   7830 ****        58.0000  51.0000  45.0000 Du        
   7831 ****        58.0000  51.2500  45.0000 Du        
   7832 ****        58.0000  51.2500  45.2500 Du        
   7833 ****        58.0000  51.5000  45.0000 Du        
   7834 ****        58.0000  51.5000  45.2500 Du        
   7835 ****        58.0000  51.5000  45.5000 Du        
   7836 ****        58.0000  51.7500  45.0000 Du        
   7837 ****        58.0000  51.7500  45.2500 Du        
   7838 ****        58.0000  51.7500  45.5000 Du        
   7839 ****        58.0000  51.7500  45.7500 Du        
   7840 ****        58.0000  52.0000  45.0000 Du        
   7841 ****        58.0000  52.0000  45.2500 Du        
   7842 ****        58.0000  52.0000  45.5000 Du        
   7843 ****        58.0000  52.0000  45.7500 Du        
   7844 ****        58.0000  52.2500  45.0000 Du        
   7845 ****        58.0000  52.2500  45.2500 Du        
   7846 ****        58.0000  52.2500  45.5000 Du        
   7847 ****        58.0000  52.2500  45.7500 Du        
   7848 ****        58.0000  52.2500  46.0000 Du        
   7849 ****        58.0000  52.5000  45.0000 Du        
   7850 ****        58.0000  52.5000  45.2500 Du        
   7851 ****        58.0000  52.5000  45.5000 Du        
   7852 ****        58.0000  52.5000  45.7500 Du        
   7853 ****        58.0000  52.5000  46.0000 Du        
   7854 ****        58.0000  52.5000  46.2500 Du        
   7855 ****        58.0000  52.7500  45.0000 Du        
   7856 ****        58.0000  52.7500  45.2500 Du        
   7857 ****        58.0000  52.7500  45.5000 Du        
   7858 ****        58.0000  52.7500  45.7500 Du        
   7859 ****        58.0000  52.7500  46.0000 Du        
   7860 ****        58.0000  52.7500  46.2500 Du        
   7861 ****        58.0000  52.7500  46.5000 Du        
   7862 ****        58.0000  53.0000  45.0000 Du        
   7863 ****        58.0000  53.0000  45.2500 Du        
   7864 ****        58.0000  53.0000  45.5000 Du        
   7865 ****        58.0000  53.0000  45.7500 Du        
   7866 ****        58.0000  53.0000  46.0000 Du        
   7867 ****        58.0000  53.0000  46.2500 Du        
   7868 ****        58.0000  53.0000  46.5000 Du        
   7869 ****        58.0000  53.0000  46.7500 Du        
   7870 ****        58.0000  53.2500  45.2500 Du        
   7871 ****        58.0000  53.2500  45.5000 Du        
   7872 ****        58.0000  53.2500  45.7500 Du        
   7873 ****        58.0000  53.2500  46.0000 Du        
   7874 ****        58.0000  53.2500  46.2500 Du        
   7875 ****        58.0000  53.2500  46.5000 Du        
   7876 ****        58.0000  53.2500  46.7500 Du        
   7877 ****        58.0000  53.2500  47.0000 Du        
   7878 ****        58.0000  53.5000  46.0000 Du        
   7879 ****        58.0000  53.5000  46.2500 Du        
   7880 ****        58.0000  53.5000  46.5000 Du        
   7881 ****        58.0000  53.5000  46.7500 Du        
   7882 ****        58.0000  53.5000  47.0000 Du        
   7883 ****        58.0000  53.5000  47.2500 Du        
   7884 ****        58.0000  53.7500  46.0000 Du        
   7885 ****        58.0000  53.7500  46.2500 Du        
   7886 ****        58.0000  53.7500  46.5000 Du        
   7887 ****        58.0000  53.7500  46.7500 Du        
   7888 ****        58.0000  53.7500  47.0000 Du        
   7889 ****        58.0000  53.7500  47.2500 Du        
   7890 ****        58.0000  53.7500  47.5000 Du        
   7891 ****        58.0000  54.0000  46.2500 Du        
   7892 ****        58.0000  54.0000  46.5000 Du        
   7893 ****        58.0000  54.0000  46.7500 Du        
   7894 ****        58.0000  54.0000  47.0000 Du        
   7895 ****        58.0000  54.0000  47.2500 Du        
   7896 ****        58.0000  54.0000  47.5000 Du        
   7897 ****        58.0000  54.2500  46.5000 Du        
   7898 ****        58.0000  54.2500  46.7500 Du        
   7899 ****        58.0000  54.2500  47.0000 Du        
   7900 ****        58.0000  54.2500  47.2500 Du        
   7901 ****        58.0000  54.5000  46.5000 Du        
   7902 ****        58.0000  54.5000  46.7500 Du        
   7903 ****        58.0000  54.5000  47.0000 Du        
   7904 ****        58.0000  54.7500  46.7500 Du        
   7905 ****        58.0000  54.7500  47.0000 Du        
   7906 ****        58.0000  57.5000  47.0000 Du        
   7907 ****        58.0000  57.7500  47.0000 Du        
   7908 ****        58.0000  57.7500  47.2500 Du        
   7909 ****        58.0000  57.7500  47.5000 Du        
   7910 ****        58.0000  58.0000  47.0000 Du        
   7911 ****        58.0000  58.0000  47.2500 Du        
   7912 ****        58.0000  58.0000  47.5000 Du        
   7913 ****        58.0000  58.2500  46.7500 Du        
   7914 ****        58.0000  58.2500  47.0000 Du        
   7915 ****        58.0000  58.2500  47.2500 Du        
   7916 ****        58.0000  58.2500  47.5000 Du        
   7917 ****        58.0000  58.2500  47.7500 Du        
   7918 ****        58.0000  58.5000  46.5000 Du        
   7919 ****        58.0000  58.5000  46.7500 Du        
   7920 ****        58.0000  58.5000  47.0000 Du        
   7921 ****        58.0000  58.5000  47.2500 Du        
   7922 ****        58.0000  58.5000  47.5000 Du        
   7923 ****        58.0000  58.5000  47.7500 Du        
   7924 ****        58.0000  58.7500  46.5000 Du        
   7925 ****        58.0000  58.7500  46.7500 Du        
   7926 ****        58.0000  58.7500  47.0000 Du        
   7927 ****        58.0000  58.7500  47.2500 Du        
   7928 ****        58.0000  58.7500  47.5000 Du        
   7929 ****        58.0000  58.7500  47.7500 Du        
   7930 ****        58.0000  58.7500  48.0000 Du        
   7931 ****        58.0000  59.0000  46.5000 Du        
   7932 ****        58.0000  59.0000  46.7500 Du        
   7933 ****        58.0000  59.0000  47.0000 Du        
   7934 ****        58.0000  59.0000  47.2500 Du        
   7935 ****        58.0000  59.0000  47.5000 Du        
   7936 ****        58.0000  59.0000  47.7500 Du        
   7937 ****        58.0000  59.0000  48.0000 Du        
   7938 ****        58.0000  59.2500  46.2500 Du        
   7939 ****        58.0000  59.2500  46.5000 Du        
   7940 ****        58.0000  59.2500  46.7500 Du        
   7941 ****        58.0000  59.2500  47.0000 Du        
   7942 ****        58.0000  59.2500  47.2500 Du        
   7943 ****        58.0000  59.2500  47.5000 Du        
   7944 ****        58.0000  59.2500  47.7500 Du        
   7945 ****        58.0000  59.2500  48.0000 Du        
   7946 ****        58.0000  59.5000  46.2500 Du        
   7947 ****        58.0000  59.5000  46.5000 Du        
   7948 ****        58.0000  59.5000  46.7500 Du        
   7949 ****        58.0000  59.5000  47.0000 Du        
   7950 ****        58.0000  59.5000  47.2500 Du        
   7951 ****        58.0000  59.5000  47.5000 Du        
   7952 ****        58.0000  59.5000  47.7500 Du        
   7953 ****        58.0000  59.5000  48.0000 Du        
   7954 ****        58.0000  59.7500  45.7500 Du        
   7955 ****        58.0000  59.7500  46.0000 Du        
   7956 ****        58.0000  59.7500  46.2500 Du        
   7957 ****        58.0000  59.7500  46.5000 Du        
   7958 ****        58.0000  59.7500  46.7500 Du        
   7959 ****        58.0000  59.7500  47.0000 Du        
   7960 ****        58.0000  59.7500  47.2500 Du        
   7961 ****        58.0000  59.7500  47.5000 Du        
   7962 ****        58.0000  59.7500  47.7500 Du        
   7963 ****        58.0000  59.7500  48.0000 Du        
   7964 ****        58.0000  60.0000  45.7500 Du        
   7965 ****        58.0000  60.0000  46.0000 Du        
   7966 ****        58.0000  60.0000  46.2500 Du        
   7967 ****        58.0000  60.0000  46.5000 Du        
   7968 ****        58.0000  60.0000  46.7500 Du        
   7969 ****        58.0000  60.0000  47.0000 Du        
   7970 ****        58.0000  60.0000  47.2500 Du        
   7971 ****        58.0000  60.0000  47.5000 Du        
   7972 ****        58.0000  60.0000  47.7500 Du        
   7973 ****        58.0000  60.0000  48.0000 Du        
   7974 ****        58.0000  60.0000  48.2500 Du        
   7975 ****        58.0000  60.2500  46.0000 Du        
   7976 ****        58.0000  60.2500  46.2500 Du        
   7977 ****        58.0000  60.2500  46.5000 Du        
   7978 ****        58.0000  60.2500  46.7500 Du        
   7979 ****        58.0000  60.2500  47.0000 Du        
   7980 ****        58.0000  60.2500  47.2500 Du        
   7981 ****        58.0000  60.2500  47.5000 Du        
   7982 ****        58.0000  60.2500  47.7500 Du        
   7983 ****        58.0000  60.2500  48.0000 Du        
   7984 ****        58.0000  60.2500  48.2500 Du        
   7985 ****        58.0000  60.5000  45.7500 Du        
   7986 ****        58.0000  60.5000  46.0000 Du        
   7987 ****        58.0000  60.5000  46.2500 Du        
   7988 ****        58.0000  60.5000  46.5000 Du        
   7989 ****        58.0000  60.5000  46.7500 Du        
   7990 ****        58.0000  60.5000  47.0000 Du        
   7991 ****        58.0000  60.5000  47.2500 Du        
   7992 ****        58.0000  60.5000  47.5000 Du        
   7993 ****        58.0000  60.5000  47.7500 Du        
   7994 ****        58.0000  60.5000  48.0000 Du        
   7995 ****        58.0000  60.7500  45.7500 Du        
   7996 ****        58.0000  60.7500  46.0000 Du        
   7997 ****        58.0000  60.7500  46.2500 Du        
   7998 ****        58.0000  60.7500  46.5000 Du        
   7999 ****        58.0000  60.7500  46.7500 Du        
   8000 ****        58.0000  60.7500  47.0000 Du        
   8001 ****        58.0000  60.7500  47.2500 Du        
   8002 ****        58.0000  60.7500  47.5000 Du        
   8003 ****        58.0000  60.7500  47.7500 Du        
   8004 ****        58.0000  60.7500  48.0000 Du        
   8005 ****        58.0000  61.0000  46.0000 Du        
   8006 ****        58.0000  61.0000  46.2500 Du        
   8007 ****        58.0000  61.0000  46.5000 Du        
   8008 ****        58.0000  61.0000  46.7500 Du        
   8009 ****        58.0000  61.0000  47.0000 Du        
   8010 ****        58.0000  61.0000  47.2500 Du        
   8011 ****        58.0000  61.0000  47.5000 Du        
   8012 ****        58.0000  61.0000  47.7500 Du        
   8013 ****        58.0000  61.0000  48.0000 Du        
   8014 ****        58.0000  61.2500  46.7500 Du        
   8015 ****        58.0000  61.2500  47.0000 Du        
   8016 ****        58.0000  61.2500  47.2500 Du        
   8017 ****        58.0000  61.2500  47.5000 Du        
   8018 ****        58.0000  61.2500  47.7500 Du        
   8019 ****        58.0000  61.2500  48.0000 Du        
   8020 ****        58.0000  61.5000  47.0000 Du        
   8021 ****        58.0000  61.5000  47.2500 Du        
   8022 ****        58.0000  61.5000  47.5000 Du        
   8023 ****        58.0000  61.5000  47.7500 Du        
   8024 ****        58.0000  61.7500  47.5000 Du        
   8025 ****        58.0000  76.0000  46.7500 Du        
   8026 ****        58.0000  76.2500  46.7500 Du        
   8027 ****        58.0000  76.5000  46.5000 Du        
   8028 ****        58.0000  76.5000  46.7500 Du        
   8029 ****        58.0000  76.7500  46.2500 Du        
   8030 ****        58.0000  76.7500  46.5000 Du        
   8031 ****        58.0000  76.7500  46.7500 Du        
   8032 ****        58.0000  77.0000  46.2500 Du        
   8033 ****        58.0000  77.0000  46.5000 Du        
   8034 ****        58.0000  77.2500  46.2500 Du        
   8035 ****        58.0000  77.2500  46.5000 Du        
   8036 ****        58.0000  77.5000  46.2500 Du        
   8037 ****        58.2500  51.0000  45.0000 Du        
   8038 ****        58.2500  51.2500  45.0000 Du        
   8039 ****        58.2500  51.2500  45.2500 Du        
   8040 ****        58.2500  51.5000  45.0000 Du        
   8041 ****        58.2500  51.5000  45.2500 Du        
   8042 ****        58.2500  51.5000  45.5000 Du        
   8043 ****        58.2500  51.7500  45.0000 Du        
   8044 ****        58.2500  51.7500  45.2500 Du        
   8045 ****        58.2500  51.7500  45.5000 Du        
   8046 ****        58.2500  51.7500  45.7500 Du        
   8047 ****        58.2500  52.0000  45.0000 Du        
   8048 ****        58.2500  52.0000  45.2500 Du        
   8049 ****        58.2500  52.0000  45.5000 Du        
   8050 ****        58.2500  52.0000  45.7500 Du        
   8051 ****        58.2500  52.0000  46.0000 Du        
   8052 ****        58.2500  52.2500  45.0000 Du        
   8053 ****        58.2500  52.2500  45.2500 Du        
   8054 ****        58.2500  52.2500  45.5000 Du        
   8055 ****        58.2500  52.2500  45.7500 Du        
   8056 ****        58.2500  52.2500  46.0000 Du        
   8057 ****        58.2500  52.5000  45.0000 Du        
   8058 ****        58.2500  52.5000  45.2500 Du        
   8059 ****        58.2500  52.5000  45.5000 Du        
   8060 ****        58.2500  52.5000  45.7500 Du        
   8061 ****        58.2500  52.5000  46.0000 Du        
   8062 ****        58.2500  52.5000  46.2500 Du        
   8063 ****        58.2500  52.7500  45.0000 Du        
   8064 ****        58.2500  52.7500  45.2500 Du        
   8065 ****        58.2500  52.7500  45.5000 Du        
   8066 ****        58.2500  52.7500  45.7500 Du        
   8067 ****        58.2500  52.7500  46.0000 Du        
   8068 ****        58.2500  52.7500  46.2500 Du        
   8069 ****        58.2500  52.7500  46.5000 Du        
   8070 ****        58.2500  53.0000  45.0000 Du        
   8071 ****        58.2500  53.0000  45.2500 Du        
   8072 ****        58.2500  53.0000  45.5000 Du        
   8073 ****        58.2500  53.0000  45.7500 Du        
   8074 ****        58.2500  53.0000  46.0000 Du        
   8075 ****        58.2500  53.0000  46.2500 Du        
   8076 ****        58.2500  53.0000  46.5000 Du        
   8077 ****        58.2500  53.0000  46.7500 Du        
   8078 ****        58.2500  53.0000  47.0000 Du        
   8079 ****        58.2500  53.2500  45.0000 Du        
   8080 ****        58.2500  53.2500  45.2500 Du        
   8081 ****        58.2500  53.2500  45.5000 Du        
   8082 ****        58.2500  53.2500  45.7500 Du        
   8083 ****        58.2500  53.2500  46.0000 Du        
   8084 ****        58.2500  53.2500  46.2500 Du        
   8085 ****        58.2500  53.2500  46.5000 Du        
   8086 ****        58.2500  53.2500  46.7500 Du        
   8087 ****        58.2500  53.2500  47.0000 Du        
   8088 ****        58.2500  53.2500  47.2500 Du        
   8089 ****        58.2500  53.5000  46.0000 Du        
   8090 ****        58.2500  53.5000  46.2500 Du        
   8091 ****        58.2500  53.5000  46.5000 Du        
   8092 ****        58.2500  53.5000  46.7500 Du        
   8093 ****        58.2500  53.5000  47.0000 Du        
   8094 ****        58.2500  53.5000  47.2500 Du        
   8095 ****        58.2500  53.5000  47.5000 Du        
   8096 ****        58.2500  53.7500  46.0000 Du        
   8097 ****        58.2500  53.7500  46.2500 Du        
   8098 ****        58.2500  53.7500  46.5000 Du        
   8099 ****        58.2500  53.7500  46.7500 Du        
   8100 ****        58.2500  53.7500  47.0000 Du        
   8101 ****        58.2500  53.7500  47.2500 Du        
   8102 ****        58.2500  53.7500  47.5000 Du        
   8103 ****        58.2500  53.7500  47.7500 Du        
   8104 ****        58.2500  54.0000  46.2500 Du        
   8105 ****        58.2500  54.0000  46.5000 Du        
   8106 ****        58.2500  54.0000  46.7500 Du        
   8107 ****        58.2500  54.0000  47.0000 Du        
   8108 ****        58.2500  54.0000  47.2500 Du        
   8109 ****        58.2500  54.0000  47.5000 Du        
   8110 ****        58.2500  54.0000  47.7500 Du        
   8111 ****        58.2500  54.2500  46.5000 Du        
   8112 ****        58.2500  54.2500  46.7500 Du        
   8113 ****        58.2500  54.2500  47.0000 Du        
   8114 ****        58.2500  54.2500  47.2500 Du        
   8115 ****        58.2500  54.2500  47.5000 Du        
   8116 ****        58.2500  54.5000  46.5000 Du        
   8117 ****        58.2500  54.5000  46.7500 Du        
   8118 ****        58.2500  54.5000  47.0000 Du        
   8119 ****        58.2500  54.5000  47.2500 Du        
   8120 ****        58.2500  54.5000  47.5000 Du        
   8121 ****        58.2500  54.7500  46.5000 Du        
   8122 ****        58.2500  54.7500  46.7500 Du        
   8123 ****        58.2500  54.7500  47.0000 Du        
   8124 ****        58.2500  54.7500  47.2500 Du        
   8125 ****        58.2500  55.0000  46.7500 Du        
   8126 ****        58.2500  55.0000  47.0000 Du        
   8127 ****        58.2500  55.0000  47.2500 Du        
   8128 ****        58.2500  55.2500  47.0000 Du        
   8129 ****        58.2500  57.0000  47.2500 Du        
   8130 ****        58.2500  57.2500  47.0000 Du        
   8131 ****        58.2500  57.2500  47.2500 Du        
   8132 ****        58.2500  57.2500  47.5000 Du        
   8133 ****        58.2500  57.5000  46.7500 Du        
   8134 ****        58.2500  57.5000  47.0000 Du        
   8135 ****        58.2500  57.5000  47.2500 Du        
   8136 ****        58.2500  57.5000  47.5000 Du        
   8137 ****        58.2500  57.5000  47.7500 Du        
   8138 ****        58.2500  57.7500  47.0000 Du        
   8139 ****        58.2500  57.7500  47.2500 Du        
   8140 ****        58.2500  57.7500  47.5000 Du        
   8141 ****        58.2500  57.7500  47.7500 Du        
   8142 ****        58.2500  58.0000  46.7500 Du        
   8143 ****        58.2500  58.0000  47.0000 Du        
   8144 ****        58.2500  58.0000  47.2500 Du        
   8145 ****        58.2500  58.0000  47.5000 Du        
   8146 ****        58.2500  58.0000  47.7500 Du        
   8147 ****        58.2500  58.2500  46.7500 Du        
   8148 ****        58.2500  58.2500  47.0000 Du        
   8149 ****        58.2500  58.2500  47.2500 Du        
   8150 ****        58.2500  58.2500  47.5000 Du        
   8151 ****        58.2500  58.2500  47.7500 Du        
   8152 ****        58.2500  58.2500  48.0000 Du        
   8153 ****        58.2500  58.5000  46.5000 Du        
   8154 ****        58.2500  58.5000  46.7500 Du        
   8155 ****        58.2500  58.5000  47.0000 Du        
   8156 ****        58.2500  58.5000  47.2500 Du        
   8157 ****        58.2500  58.5000  47.5000 Du        
   8158 ****        58.2500  58.5000  47.7500 Du        
   8159 ****        58.2500  58.5000  48.0000 Du        
   8160 ****        58.2500  58.7500  46.2500 Du        
   8161 ****        58.2500  58.7500  46.5000 Du        
   8162 ****        58.2500  58.7500  46.7500 Du        
   8163 ****        58.2500  58.7500  47.0000 Du        
   8164 ****        58.2500  58.7500  47.2500 Du        
   8165 ****        58.2500  58.7500  47.5000 Du        
   8166 ****        58.2500  58.7500  47.7500 Du        
   8167 ****        58.2500  58.7500  48.0000 Du        
   8168 ****        58.2500  58.7500  48.2500 Du        
   8169 ****        58.2500  59.0000  46.2500 Du        
   8170 ****        58.2500  59.0000  46.5000 Du        
   8171 ****        58.2500  59.0000  46.7500 Du        
   8172 ****        58.2500  59.0000  47.0000 Du        
   8173 ****        58.2500  59.0000  47.2500 Du        
   8174 ****        58.2500  59.0000  47.5000 Du        
   8175 ****        58.2500  59.0000  47.7500 Du        
   8176 ****        58.2500  59.0000  48.0000 Du        
   8177 ****        58.2500  59.0000  48.2500 Du        
   8178 ****        58.2500  59.2500  46.0000 Du        
   8179 ****        58.2500  59.2500  46.2500 Du        
   8180 ****        58.2500  59.2500  46.5000 Du        
   8181 ****        58.2500  59.2500  46.7500 Du        
   8182 ****        58.2500  59.2500  47.0000 Du        
   8183 ****        58.2500  59.2500  47.2500 Du        
   8184 ****        58.2500  59.2500  47.5000 Du        
   8185 ****        58.2500  59.2500  47.7500 Du        
   8186 ****        58.2500  59.2500  48.0000 Du        
   8187 ****        58.2500  59.2500  48.2500 Du        
   8188 ****        58.2500  59.5000  46.0000 Du        
   8189 ****        58.2500  59.5000  46.2500 Du        
   8190 ****        58.2500  59.5000  46.5000 Du        
   8191 ****        58.2500  59.5000  46.7500 Du        
   8192 ****        58.2500  59.5000  47.0000 Du        
   8193 ****        58.2500  59.5000  47.2500 Du        
   8194 ****        58.2500  59.5000  47.5000 Du        
   8195 ****        58.2500  59.5000  47.7500 Du        
   8196 ****        58.2500  59.5000  48.0000 Du        
   8197 ****        58.2500  59.5000  48.2500 Du        
   8198 ****        58.2500  59.7500  45.7500 Du        
   8199 ****        58.2500  59.7500  46.0000 Du        
   8200 ****        58.2500  59.7500  46.2500 Du        
   8201 ****        58.2500  59.7500  46.5000 Du        
   8202 ****        58.2500  59.7500  46.7500 Du        
   8203 ****        58.2500  59.7500  47.0000 Du        
   8204 ****        58.2500  59.7500  47.2500 Du        
   8205 ****        58.2500  59.7500  47.5000 Du        
   8206 ****        58.2500  59.7500  47.7500 Du        
   8207 ****        58.2500  59.7500  48.0000 Du        
   8208 ****        58.2500  59.7500  48.2500 Du        
   8209 ****        58.2500  60.0000  45.7500 Du        
   8210 ****        58.2500  60.0000  46.0000 Du        
   8211 ****        58.2500  60.0000  46.2500 Du        
   8212 ****        58.2500  60.0000  46.5000 Du        
   8213 ****        58.2500  60.0000  46.7500 Du        
   8214 ****        58.2500  60.0000  47.0000 Du        
   8215 ****        58.2500  60.0000  47.2500 Du        
   8216 ****        58.2500  60.0000  47.5000 Du        
   8217 ****        58.2500  60.0000  47.7500 Du        
   8218 ****        58.2500  60.0000  48.0000 Du        
   8219 ****        58.2500  60.0000  48.2500 Du        
   8220 ****        58.2500  60.2500  45.7500 Du        
   8221 ****        58.2500  60.2500  46.0000 Du        
   8222 ****        58.2500  60.2500  46.2500 Du        
   8223 ****        58.2500  60.2500  46.5000 Du        
   8224 ****        58.2500  60.2500  46.7500 Du        
   8225 ****        58.2500  60.2500  47.0000 Du        
   8226 ****        58.2500  60.2500  47.2500 Du        
   8227 ****        58.2500  60.2500  47.5000 Du        
   8228 ****        58.2500  60.2500  47.7500 Du        
   8229 ****        58.2500  60.2500  48.0000 Du        
   8230 ****        58.2500  60.2500  48.2500 Du        
   8231 ****        58.2500  60.5000  45.5000 Du        
   8232 ****        58.2500  60.5000  45.7500 Du        
   8233 ****        58.2500  60.5000  46.0000 Du        
   8234 ****        58.2500  60.5000  46.2500 Du        
   8235 ****        58.2500  60.5000  46.5000 Du        
   8236 ****        58.2500  60.5000  46.7500 Du        
   8237 ****        58.2500  60.5000  47.0000 Du        
   8238 ****        58.2500  60.5000  47.2500 Du        
   8239 ****        58.2500  60.5000  47.5000 Du        
   8240 ****        58.2500  60.5000  47.7500 Du        
   8241 ****        58.2500  60.5000  48.0000 Du        
   8242 ****        58.2500  60.7500  45.7500 Du        
   8243 ****        58.2500  60.7500  46.0000 Du        
   8244 ****        58.2500  60.7500  46.2500 Du        
   8245 ****        58.2500  60.7500  46.5000 Du        
   8246 ****        58.2500  60.7500  46.7500 Du        
   8247 ****        58.2500  60.7500  47.0000 Du        
   8248 ****        58.2500  60.7500  47.2500 Du        
   8249 ****        58.2500  60.7500  47.5000 Du        
   8250 ****        58.2500  60.7500  47.7500 Du        
   8251 ****        58.2500  60.7500  48.0000 Du        
   8252 ****        58.2500  61.0000  46.0000 Du        
   8253 ****        58.2500  61.0000  46.2500 Du        
   8254 ****        58.2500  61.0000  46.5000 Du        
   8255 ****        58.2500  61.0000  46.7500 Du        
   8256 ****        58.2500  61.0000  47.0000 Du        
   8257 ****        58.2500  61.0000  47.2500 Du        
   8258 ****        58.2500  61.0000  47.5000 Du        
   8259 ****        58.2500  61.0000  47.7500 Du        
   8260 ****        58.2500  61.0000  48.0000 Du        
   8261 ****        58.2500  61.2500  46.7500 Du        
   8262 ****        58.2500  61.2500  47.0000 Du        
   8263 ****        58.2500  61.2500  47.2500 Du        
   8264 ****        58.2500  61.2500  47.5000 Du        
   8265 ****        58.2500  61.2500  47.7500 Du        
   8266 ****        58.2500  61.5000  47.2500 Du        
   8267 ****        58.2500  61.5000  47.5000 Du        
   8268 ****        58.2500  61.5000  47.7500 Du        
   8269 ****        58.5000  51.0000  45.0000 Du        
   8270 ****        58.5000  51.2500  45.0000 Du        
   8271 ****        58.5000  51.2500  45.2500 Du        
   8272 ****        58.5000  51.5000  45.0000 Du        
   8273 ****        58.5000  51.5000  45.2500 Du        
   8274 ****        58.5000  51.5000  45.5000 Du        
   8275 ****        58.5000  51.7500  45.0000 Du        
   8276 ****        58.5000  51.7500  45.2500 Du        
   8277 ****        58.5000  51.7500  45.5000 Du        
   8278 ****        58.5000  51.7500  45.7500 Du        
   8279 ****        58.5000  52.0000  45.0000 Du        
   8280 ****        58.5000  52.0000  45.2500 Du        
   8281 ****        58.5000  52.0000  45.5000 Du        
   8282 ****        58.5000  52.0000  45.7500 Du        
   8283 ****        58.5000  52.0000  46.0000 Du        
   8284 ****        58.5000  52.2500  45.0000 Du        
   8285 ****        58.5000  52.2500  45.2500 Du        
   8286 ****        58.5000  52.2500  45.5000 Du        
   8287 ****        58.5000  52.2500  45.7500 Du        
   8288 ****        58.5000  52.2500  46.0000 Du        
   8289 ****        58.5000  52.2500  46.2500 Du        
   8290 ****        58.5000  52.5000  45.0000 Du        
   8291 ****        58.5000  52.5000  45.2500 Du        
   8292 ****        58.5000  52.5000  45.5000 Du        
   8293 ****        58.5000  52.5000  45.7500 Du        
   8294 ****        58.5000  52.5000  46.0000 Du        
   8295 ****        58.5000  52.5000  46.2500 Du        
   8296 ****        58.5000  52.5000  46.5000 Du        
   8297 ****        58.5000  52.7500  45.0000 Du        
   8298 ****        58.5000  52.7500  45.2500 Du        
   8299 ****        58.5000  52.7500  45.5000 Du        
   8300 ****        58.5000  52.7500  45.7500 Du        
   8301 ****        58.5000  52.7500  46.0000 Du        
   8302 ****        58.5000  52.7500  46.2500 Du        
   8303 ****        58.5000  52.7500  46.5000 Du        
   8304 ****        58.5000  52.7500  46.7500 Du        
   8305 ****        58.5000  53.0000  45.0000 Du        
   8306 ****        58.5000  53.0000  45.2500 Du        
   8307 ****        58.5000  53.0000  45.5000 Du        
   8308 ****        58.5000  53.0000  45.7500 Du        
   8309 ****        58.5000  53.0000  46.0000 Du        
   8310 ****        58.5000  53.0000  46.2500 Du        
   8311 ****        58.5000  53.0000  46.5000 Du        
   8312 ****        58.5000  53.0000  46.7500 Du        
   8313 ****        58.5000  53.0000  47.0000 Du        
   8314 ****        58.5000  53.2500  45.0000 Du        
   8315 ****        58.5000  53.2500  45.2500 Du        
   8316 ****        58.5000  53.2500  45.5000 Du        
   8317 ****        58.5000  53.2500  45.7500 Du        
   8318 ****        58.5000  53.2500  46.0000 Du        
   8319 ****        58.5000  53.2500  46.2500 Du        
   8320 ****        58.5000  53.2500  46.5000 Du        
   8321 ****        58.5000  53.2500  46.7500 Du        
   8322 ****        58.5000  53.2500  47.0000 Du        
   8323 ****        58.5000  53.2500  47.2500 Du        
   8324 ****        58.5000  53.2500  47.5000 Du        
   8325 ****        58.5000  53.5000  45.5000 Du        
   8326 ****        58.5000  53.5000  45.7500 Du        
   8327 ****        58.5000  53.5000  46.0000 Du        
   8328 ****        58.5000  53.5000  46.2500 Du        
   8329 ****        58.5000  53.5000  46.5000 Du        
   8330 ****        58.5000  53.5000  46.7500 Du        
   8331 ****        58.5000  53.5000  47.0000 Du        
   8332 ****        58.5000  53.5000  47.2500 Du        
   8333 ****        58.5000  53.5000  47.5000 Du        
   8334 ****        58.5000  53.5000  47.7500 Du        
   8335 ****        58.5000  53.5000  48.0000 Du        
   8336 ****        58.5000  53.7500  45.7500 Du        
   8337 ****        58.5000  53.7500  46.0000 Du        
   8338 ****        58.5000  53.7500  46.2500 Du        
   8339 ****        58.5000  53.7500  46.5000 Du        
   8340 ****        58.5000  53.7500  46.7500 Du        
   8341 ****        58.5000  53.7500  47.0000 Du        
   8342 ****        58.5000  53.7500  47.2500 Du        
   8343 ****        58.5000  53.7500  47.5000 Du        
   8344 ****        58.5000  53.7500  47.7500 Du        
   8345 ****        58.5000  53.7500  48.0000 Du        
   8346 ****        58.5000  53.7500  48.2500 Du        
   8347 ****        58.5000  54.0000  46.2500 Du        
   8348 ****        58.5000  54.0000  46.5000 Du        
   8349 ****        58.5000  54.0000  46.7500 Du        
   8350 ****        58.5000  54.0000  47.0000 Du        
   8351 ****        58.5000  54.0000  47.2500 Du        
   8352 ****        58.5000  54.0000  47.5000 Du        
   8353 ****        58.5000  54.0000  47.7500 Du        
   8354 ****        58.5000  54.0000  48.0000 Du        
   8355 ****        58.5000  54.0000  48.2500 Du        
   8356 ****        58.5000  54.2500  46.5000 Du        
   8357 ****        58.5000  54.2500  46.7500 Du        
   8358 ****        58.5000  54.2500  47.0000 Du        
   8359 ****        58.5000  54.2500  47.2500 Du        
   8360 ****        58.5000  54.2500  47.5000 Du        
   8361 ****        58.5000  54.2500  47.7500 Du        
   8362 ****        58.5000  54.2500  48.0000 Du        
   8363 ****        58.5000  54.5000  46.7500 Du        
   8364 ****        58.5000  54.5000  47.0000 Du        
   8365 ****        58.5000  54.5000  47.2500 Du        
   8366 ****        58.5000  54.5000  47.5000 Du        
   8367 ****        58.5000  54.5000  47.7500 Du        
   8368 ****        58.5000  54.7500  46.7500 Du        
   8369 ****        58.5000  54.7500  47.0000 Du        
   8370 ****        58.5000  54.7500  47.2500 Du        
   8371 ****        58.5000  54.7500  47.5000 Du        
   8372 ****        58.5000  55.0000  46.7500 Du        
   8373 ****        58.5000  55.0000  47.0000 Du        
   8374 ****        58.5000  55.0000  47.2500 Du        
   8375 ****        58.5000  55.0000  47.5000 Du        
   8376 ****        58.5000  55.2500  46.7500 Du        
   8377 ****        58.5000  55.2500  47.0000 Du        
   8378 ****        58.5000  55.2500  47.2500 Du        
   8379 ****        58.5000  55.2500  47.5000 Du        
   8380 ****        58.5000  55.5000  47.0000 Du        
   8381 ****        58.5000  55.7500  47.0000 Du        
   8382 ****        58.5000  55.7500  47.2500 Du        
   8383 ****        58.5000  56.0000  47.0000 Du        
   8384 ****        58.5000  56.0000  47.2500 Du        
   8385 ****        58.5000  56.0000  47.5000 Du        
   8386 ****        58.5000  56.2500  47.2500 Du        
   8387 ****        58.5000  56.2500  47.5000 Du        
   8388 ****        58.5000  56.7500  47.0000 Du        
   8389 ****        58.5000  56.7500  47.2500 Du        
   8390 ****        58.5000  56.7500  47.5000 Du        
   8391 ****        58.5000  57.0000  46.7500 Du        
   8392 ****        58.5000  57.0000  47.0000 Du        
   8393 ****        58.5000  57.0000  47.2500 Du        
   8394 ****        58.5000  57.0000  47.5000 Du        
   8395 ****        58.5000  57.0000  47.7500 Du        
   8396 ****        58.5000  57.2500  46.7500 Du        
   8397 ****        58.5000  57.2500  47.0000 Du        
   8398 ****        58.5000  57.2500  47.2500 Du        
   8399 ****        58.5000  57.2500  47.5000 Du        
   8400 ****        58.5000  57.2500  47.7500 Du        
   8401 ****        58.5000  57.5000  46.7500 Du        
   8402 ****        58.5000  57.5000  47.0000 Du        
   8403 ****        58.5000  57.5000  47.2500 Du        
   8404 ****        58.5000  57.5000  47.5000 Du        
   8405 ****        58.5000  57.5000  47.7500 Du        
   8406 ****        58.5000  57.5000  48.0000 Du        
   8407 ****        58.5000  57.7500  46.5000 Du        
   8408 ****        58.5000  57.7500  46.7500 Du        
   8409 ****        58.5000  57.7500  47.0000 Du        
   8410 ****        58.5000  57.7500  47.2500 Du        
   8411 ****        58.5000  57.7500  47.5000 Du        
   8412 ****        58.5000  57.7500  47.7500 Du        
   8413 ****        58.5000  57.7500  48.0000 Du        
   8414 ****        58.5000  58.0000  46.5000 Du        
   8415 ****        58.5000  58.0000  46.7500 Du        
   8416 ****        58.5000  58.0000  47.0000 Du        
   8417 ****        58.5000  58.0000  47.2500 Du        
   8418 ****        58.5000  58.0000  47.5000 Du        
   8419 ****        58.5000  58.0000  47.7500 Du        
   8420 ****        58.5000  58.0000  48.0000 Du        
   8421 ****        58.5000  58.2500  46.5000 Du        
   8422 ****        58.5000  58.2500  46.7500 Du        
   8423 ****        58.5000  58.2500  47.0000 Du        
   8424 ****        58.5000  58.2500  47.2500 Du        
   8425 ****        58.5000  58.2500  47.5000 Du        
   8426 ****        58.5000  58.2500  47.7500 Du        
   8427 ****        58.5000  58.2500  48.0000 Du        
   8428 ****        58.5000  58.2500  48.2500 Du        
   8429 ****        58.5000  58.5000  46.5000 Du        
   8430 ****        58.5000  58.5000  46.7500 Du        
   8431 ****        58.5000  58.5000  47.0000 Du        
   8432 ****        58.5000  58.5000  47.2500 Du        
   8433 ****        58.5000  58.5000  47.5000 Du        
   8434 ****        58.5000  58.5000  47.7500 Du        
   8435 ****        58.5000  58.5000  48.0000 Du        
   8436 ****        58.5000  58.5000  48.2500 Du        
   8437 ****        58.5000  58.7500  46.2500 Du        
   8438 ****        58.5000  58.7500  46.5000 Du        
   8439 ****        58.5000  58.7500  46.7500 Du        
   8440 ****        58.5000  58.7500  47.0000 Du        
   8441 ****        58.5000  58.7500  47.2500 Du        
   8442 ****        58.5000  58.7500  47.5000 Du        
   8443 ****        58.5000  58.7500  47.7500 Du        
   8444 ****        58.5000  58.7500  48.0000 Du        
   8445 ****        58.5000  58.7500  48.2500 Du        
   8446 ****        58.5000  59.0000  46.0000 Du        
   8447 ****        58.5000  59.0000  46.2500 Du        
   8448 ****        58.5000  59.0000  46.5000 Du        
   8449 ****        58.5000  59.0000  46.7500 Du        
   8450 ****        58.5000  59.0000  47.0000 Du        
   8451 ****        58.5000  59.0000  47.2500 Du        
   8452 ****        58.5000  59.0000  47.5000 Du        
   8453 ****        58.5000  59.0000  47.7500 Du        
   8454 ****        58.5000  59.0000  48.0000 Du        
   8455 ****        58.5000  59.0000  48.2500 Du        
   8456 ****        58.5000  59.2500  45.7500 Du        
   8457 ****        58.5000  59.2500  46.0000 Du        
   8458 ****        58.5000  59.2500  46.2500 Du        
   8459 ****        58.5000  59.2500  46.5000 Du        
   8460 ****        58.5000  59.2500  46.7500 Du        
   8461 ****        58.5000  59.2500  47.0000 Du        
   8462 ****        58.5000  59.2500  47.2500 Du        
   8463 ****        58.5000  59.2500  47.5000 Du        
   8464 ****        58.5000  59.2500  47.7500 Du        
   8465 ****        58.5000  59.2500  48.0000 Du        
   8466 ****        58.5000  59.2500  48.2500 Du        
   8467 ****        58.5000  59.5000  45.7500 Du        
   8468 ****        58.5000  59.5000  46.0000 Du        
   8469 ****        58.5000  59.5000  46.2500 Du        
   8470 ****        58.5000  59.5000  46.5000 Du        
   8471 ****        58.5000  59.5000  46.7500 Du        
   8472 ****        58.5000  59.5000  47.0000 Du        
   8473 ****        58.5000  59.5000  47.2500 Du        
   8474 ****        58.5000  59.5000  47.5000 Du        
   8475 ****        58.5000  59.5000  47.7500 Du        
   8476 ****        58.5000  59.5000  48.0000 Du        
   8477 ****        58.5000  59.5000  48.2500 Du        
   8478 ****        58.5000  59.7500  45.5000 Du        
   8479 ****        58.5000  59.7500  45.7500 Du        
   8480 ****        58.5000  59.7500  46.0000 Du        
   8481 ****        58.5000  59.7500  46.2500 Du        
   8482 ****        58.5000  59.7500  46.5000 Du        
   8483 ****        58.5000  59.7500  46.7500 Du        
   8484 ****        58.5000  59.7500  47.0000 Du        
   8485 ****        58.5000  59.7500  47.2500 Du        
   8486 ****        58.5000  59.7500  47.5000 Du        
   8487 ****        58.5000  59.7500  47.7500 Du        
   8488 ****        58.5000  59.7500  48.0000 Du        
   8489 ****        58.5000  59.7500  48.2500 Du        
   8490 ****        58.5000  60.0000  45.5000 Du        
   8491 ****        58.5000  60.0000  45.7500 Du        
   8492 ****        58.5000  60.0000  46.0000 Du        
   8493 ****        58.5000  60.0000  46.2500 Du        
   8494 ****        58.5000  60.0000  46.5000 Du        
   8495 ****        58.5000  60.0000  46.7500 Du        
   8496 ****        58.5000  60.0000  47.0000 Du        
   8497 ****        58.5000  60.0000  47.2500 Du        
   8498 ****        58.5000  60.0000  47.5000 Du        
   8499 ****        58.5000  60.0000  47.7500 Du        
   8500 ****        58.5000  60.0000  48.0000 Du        
   8501 ****        58.5000  60.0000  48.2500 Du        
   8502 ****        58.5000  60.2500  45.5000 Du        
   8503 ****        58.5000  60.2500  45.7500 Du        
   8504 ****        58.5000  60.2500  46.0000 Du        
   8505 ****        58.5000  60.2500  46.2500 Du        
   8506 ****        58.5000  60.2500  46.5000 Du        
   8507 ****        58.5000  60.2500  46.7500 Du        
   8508 ****        58.5000  60.2500  47.0000 Du        
   8509 ****        58.5000  60.2500  47.2500 Du        
   8510 ****        58.5000  60.2500  47.5000 Du        
   8511 ****        58.5000  60.2500  47.7500 Du        
   8512 ****        58.5000  60.2500  48.0000 Du        
   8513 ****        58.5000  60.5000  45.5000 Du        
   8514 ****        58.5000  60.5000  45.7500 Du        
   8515 ****        58.5000  60.5000  46.0000 Du        
   8516 ****        58.5000  60.5000  46.2500 Du        
   8517 ****        58.5000  60.5000  46.5000 Du        
   8518 ****        58.5000  60.5000  46.7500 Du        
   8519 ****        58.5000  60.5000  47.0000 Du        
   8520 ****        58.5000  60.5000  47.2500 Du        
   8521 ****        58.5000  60.5000  47.5000 Du        
   8522 ****        58.5000  60.5000  47.7500 Du        
   8523 ****        58.5000  60.5000  48.0000 Du        
   8524 ****        58.5000  60.7500  45.5000 Du        
   8525 ****        58.5000  60.7500  45.7500 Du        
   8526 ****        58.5000  60.7500  46.0000 Du        
   8527 ****        58.5000  60.7500  46.2500 Du        
   8528 ****        58.5000  60.7500  46.5000 Du        
   8529 ****        58.5000  60.7500  46.7500 Du        
   8530 ****        58.5000  60.7500  47.0000 Du        
   8531 ****        58.5000  60.7500  47.2500 Du        
   8532 ****        58.5000  60.7500  47.5000 Du        
   8533 ****        58.5000  60.7500  47.7500 Du        
   8534 ****        58.5000  60.7500  48.0000 Du        
   8535 ****        58.5000  61.0000  46.0000 Du        
   8536 ****        58.5000  61.0000  46.2500 Du        
   8537 ****        58.5000  61.0000  46.5000 Du        
   8538 ****        58.5000  61.0000  46.7500 Du        
   8539 ****        58.5000  61.0000  47.0000 Du        
   8540 ****        58.5000  61.0000  47.2500 Du        
   8541 ****        58.5000  61.0000  47.5000 Du        
   8542 ****        58.5000  61.0000  47.7500 Du        
   8543 ****        58.5000  61.2500  46.7500 Du        
   8544 ****        58.5000  61.2500  47.0000 Du        
   8545 ****        58.5000  61.2500  47.2500 Du        
   8546 ****        58.5000  61.2500  47.5000 Du        
   8547 ****        58.5000  61.2500  47.7500 Du        
   8548 ****        58.5000  61.5000  47.2500 Du        
   8549 ****        58.5000  61.5000  47.5000 Du        
   8550 ****        58.7500  51.0000  45.0000 Du        
   8551 ****        58.7500  51.2500  45.0000 Du        
   8552 ****        58.7500  51.2500  45.2500 Du        
   8553 ****        58.7500  51.2500  45.5000 Du        
   8554 ****        58.7500  51.5000  45.0000 Du        
   8555 ****        58.7500  51.5000  45.2500 Du        
   8556 ****        58.7500  51.5000  45.5000 Du        
   8557 ****        58.7500  51.7500  45.0000 Du        
   8558 ****        58.7500  51.7500  45.2500 Du        
   8559 ****        58.7500  51.7500  45.5000 Du        
   8560 ****        58.7500  51.7500  45.7500 Du        
   8561 ****        58.7500  52.0000  45.0000 Du        
   8562 ****        58.7500  52.0000  45.2500 Du        
   8563 ****        58.7500  52.0000  45.5000 Du        
   8564 ****        58.7500  52.0000  45.7500 Du        
   8565 ****        58.7500  52.0000  46.0000 Du        
   8566 ****        58.7500  52.2500  45.0000 Du        
   8567 ****        58.7500  52.2500  45.2500 Du        
   8568 ****        58.7500  52.2500  45.5000 Du        
   8569 ****        58.7500  52.2500  45.7500 Du        
   8570 ****        58.7500  52.2500  46.0000 Du        
   8571 ****        58.7500  52.2500  46.2500 Du        
   8572 ****        58.7500  52.5000  45.0000 Du        
   8573 ****        58.7500  52.5000  45.2500 Du        
   8574 ****        58.7500  52.5000  45.5000 Du        
   8575 ****        58.7500  52.5000  45.7500 Du        
   8576 ****        58.7500  52.5000  46.0000 Du        
   8577 ****        58.7500  52.5000  46.2500 Du        
   8578 ****        58.7500  52.7500  45.0000 Du        
   8579 ****        58.7500  52.7500  45.2500 Du        
   8580 ****        58.7500  52.7500  45.5000 Du        
   8581 ****        58.7500  52.7500  45.7500 Du        
   8582 ****        58.7500  52.7500  46.0000 Du        
   8583 ****        58.7500  52.7500  46.2500 Du        
   8584 ****        58.7500  52.7500  46.5000 Du        
   8585 ****        58.7500  52.7500  46.7500 Du        
   8586 ****        58.7500  53.0000  45.0000 Du        
   8587 ****        58.7500  53.0000  45.2500 Du        
   8588 ****        58.7500  53.0000  45.5000 Du        
   8589 ****        58.7500  53.0000  45.7500 Du        
   8590 ****        58.7500  53.0000  46.0000 Du        
   8591 ****        58.7500  53.0000  46.2500 Du        
   8592 ****        58.7500  53.0000  46.5000 Du        
   8593 ****        58.7500  53.0000  46.7500 Du        
   8594 ****        58.7500  53.0000  47.0000 Du        
   8595 ****        58.7500  53.2500  45.0000 Du        
   8596 ****        58.7500  53.2500  45.2500 Du        
   8597 ****        58.7500  53.2500  45.5000 Du        
   8598 ****        58.7500  53.2500  45.7500 Du        
   8599 ****        58.7500  53.2500  46.0000 Du        
   8600 ****        58.7500  53.2500  46.2500 Du        
   8601 ****        58.7500  53.2500  46.5000 Du        
   8602 ****        58.7500  53.2500  46.7500 Du        
   8603 ****        58.7500  53.2500  47.0000 Du        
   8604 ****        58.7500  53.2500  47.2500 Du        
   8605 ****        58.7500  53.2500  47.5000 Du        
   8606 ****        58.7500  53.5000  45.2500 Du        
   8607 ****        58.7500  53.5000  45.5000 Du        
   8608 ****        58.7500  53.5000  45.7500 Du        
   8609 ****        58.7500  53.5000  46.0000 Du        
   8610 ****        58.7500  53.5000  46.2500 Du        
   8611 ****        58.7500  53.5000  46.5000 Du        
   8612 ****        58.7500  53.5000  46.7500 Du        
   8613 ****        58.7500  53.5000  47.0000 Du        
   8614 ****        58.7500  53.5000  47.2500 Du        
   8615 ****        58.7500  53.5000  47.5000 Du        
   8616 ****        58.7500  53.5000  47.7500 Du        
   8617 ****        58.7500  53.5000  48.0000 Du        
   8618 ****        58.7500  53.5000  48.2500 Du        
   8619 ****        58.7500  53.7500  45.5000 Du        
   8620 ****        58.7500  53.7500  45.7500 Du        
   8621 ****        58.7500  53.7500  46.0000 Du        
   8622 ****        58.7500  53.7500  46.2500 Du        
   8623 ****        58.7500  53.7500  46.5000 Du        
   8624 ****        58.7500  53.7500  46.7500 Du        
   8625 ****        58.7500  53.7500  47.0000 Du        
   8626 ****        58.7500  53.7500  47.2500 Du        
   8627 ****        58.7500  53.7500  47.5000 Du        
   8628 ****        58.7500  53.7500  47.7500 Du        
   8629 ****        58.7500  53.7500  48.0000 Du        
   8630 ****        58.7500  53.7500  48.2500 Du        
   8631 ****        58.7500  53.7500  48.5000 Du        
   8632 ****        58.7500  53.7500  48.7500 Du        
   8633 ****        58.7500  54.0000  46.0000 Du        
   8634 ****        58.7500  54.0000  46.2500 Du        
   8635 ****        58.7500  54.0000  46.5000 Du        
   8636 ****        58.7500  54.0000  46.7500 Du        
   8637 ****        58.7500  54.0000  47.0000 Du        
   8638 ****        58.7500  54.0000  47.2500 Du        
   8639 ****        58.7500  54.0000  47.5000 Du        
   8640 ****        58.7500  54.0000  47.7500 Du        
   8641 ****        58.7500  54.0000  48.0000 Du        
   8642 ****        58.7500  54.0000  48.2500 Du        
   8643 ****        58.7500  54.0000  48.5000 Du        
   8644 ****        58.7500  54.0000  48.7500 Du        
   8645 ****        58.7500  54.2500  46.2500 Du        
   8646 ****        58.7500  54.2500  46.5000 Du        
   8647 ****        58.7500  54.2500  46.7500 Du        
   8648 ****        58.7500  54.2500  47.0000 Du        
   8649 ****        58.7500  54.2500  47.2500 Du        
   8650 ****        58.7500  54.2500  47.5000 Du        
   8651 ****        58.7500  54.2500  47.7500 Du        
   8652 ****        58.7500  54.2500  48.0000 Du        
   8653 ****        58.7500  54.2500  48.2500 Du        
   8654 ****        58.7500  54.2500  48.5000 Du        
   8655 ****        58.7500  54.2500  48.7500 Du        
   8656 ****        58.7500  54.5000  46.5000 Du        
   8657 ****        58.7500  54.5000  46.7500 Du        
   8658 ****        58.7500  54.5000  47.0000 Du        
   8659 ****        58.7500  54.5000  47.2500 Du        
   8660 ****        58.7500  54.5000  47.5000 Du        
   8661 ****        58.7500  54.5000  47.7500 Du        
   8662 ****        58.7500  54.5000  48.0000 Du        
   8663 ****        58.7500  54.5000  48.2500 Du        
   8664 ****        58.7500  54.7500  46.7500 Du        
   8665 ****        58.7500  54.7500  47.0000 Du        
   8666 ****        58.7500  54.7500  47.2500 Du        
   8667 ****        58.7500  54.7500  47.5000 Du        
   8668 ****        58.7500  54.7500  47.7500 Du        
   8669 ****        58.7500  54.7500  48.0000 Du        
   8670 ****        58.7500  54.7500  48.2500 Du        
   8671 ****        58.7500  55.0000  46.5000 Du        
   8672 ****        58.7500  55.0000  46.7500 Du        
   8673 ****        58.7500  55.0000  47.0000 Du        
   8674 ****        58.7500  55.0000  47.2500 Du        
   8675 ****        58.7500  55.0000  47.5000 Du        
   8676 ****        58.7500  55.0000  47.7500 Du        
   8677 ****        58.7500  55.0000  48.0000 Du        
   8678 ****        58.7500  55.2500  46.7500 Du        
   8679 ****        58.7500  55.2500  47.0000 Du        
   8680 ****        58.7500  55.2500  47.2500 Du        
   8681 ****        58.7500  55.2500  47.5000 Du        
   8682 ****        58.7500  55.2500  47.7500 Du        
   8683 ****        58.7500  55.2500  48.0000 Du        
   8684 ****        58.7500  55.5000  47.0000 Du        
   8685 ****        58.7500  55.5000  47.2500 Du        
   8686 ****        58.7500  55.5000  47.5000 Du        
   8687 ****        58.7500  55.5000  47.7500 Du        
   8688 ****        58.7500  55.7500  47.0000 Du        
   8689 ****        58.7500  55.7500  47.2500 Du        
   8690 ****        58.7500  55.7500  47.5000 Du        
   8691 ****        58.7500  55.7500  47.7500 Du        
   8692 ****        58.7500  56.0000  46.7500 Du        
   8693 ****        58.7500  56.0000  47.0000 Du        
   8694 ****        58.7500  56.0000  47.2500 Du        
   8695 ****        58.7500  56.0000  47.5000 Du        
   8696 ****        58.7500  56.0000  47.7500 Du        
   8697 ****        58.7500  56.2500  46.7500 Du        
   8698 ****        58.7500  56.2500  47.0000 Du        
   8699 ****        58.7500  56.2500  47.2500 Du        
   8700 ****        58.7500  56.2500  47.5000 Du        
   8701 ****        58.7500  56.2500  47.7500 Du        
   8702 ****        58.7500  56.2500  48.0000 Du        
   8703 ****        58.7500  56.5000  47.0000 Du        
   8704 ****        58.7500  56.5000  47.2500 Du        
   8705 ****        58.7500  56.5000  47.5000 Du        
   8706 ****        58.7500  56.5000  47.7500 Du        
   8707 ****        58.7500  56.5000  48.0000 Du        
   8708 ****        58.7500  56.7500  46.7500 Du        
   8709 ****        58.7500  56.7500  47.0000 Du        
   8710 ****        58.7500  56.7500  47.2500 Du        
   8711 ****        58.7500  56.7500  47.5000 Du        
   8712 ****        58.7500  56.7500  47.7500 Du        
   8713 ****        58.7500  56.7500  48.0000 Du        
   8714 ****        58.7500  57.0000  46.7500 Du        
   8715 ****        58.7500  57.0000  47.0000 Du        
   8716 ****        58.7500  57.0000  47.2500 Du        
   8717 ****        58.7500  57.0000  47.5000 Du        
   8718 ****        58.7500  57.0000  47.7500 Du        
   8719 ****        58.7500  57.0000  48.0000 Du        
   8720 ****        58.7500  57.2500  46.7500 Du        
   8721 ****        58.7500  57.2500  47.0000 Du        
   8722 ****        58.7500  57.2500  47.2500 Du        
   8723 ****        58.7500  57.2500  47.5000 Du        
   8724 ****        58.7500  57.2500  47.7500 Du        
   8725 ****        58.7500  57.2500  48.0000 Du        
   8726 ****        58.7500  57.5000  46.5000 Du        
   8727 ****        58.7500  57.5000  46.7500 Du        
   8728 ****        58.7500  57.5000  47.0000 Du        
   8729 ****        58.7500  57.5000  47.2500 Du        
   8730 ****        58.7500  57.5000  47.5000 Du        
   8731 ****        58.7500  57.5000  47.7500 Du        
   8732 ****        58.7500  57.5000  48.0000 Du        
   8733 ****        58.7500  57.7500  46.5000 Du        
   8734 ****        58.7500  57.7500  46.7500 Du        
   8735 ****        58.7500  57.7500  47.0000 Du        
   8736 ****        58.7500  57.7500  47.2500 Du        
   8737 ****        58.7500  57.7500  47.5000 Du        
   8738 ****        58.7500  57.7500  47.7500 Du        
   8739 ****        58.7500  57.7500  48.0000 Du        
   8740 ****        58.7500  57.7500  48.2500 Du        
   8741 ****        58.7500  58.0000  46.5000 Du        
   8742 ****        58.7500  58.0000  46.7500 Du        
   8743 ****        58.7500  58.0000  47.0000 Du        
   8744 ****        58.7500  58.0000  47.2500 Du        
   8745 ****        58.7500  58.0000  47.5000 Du        
   8746 ****        58.7500  58.0000  47.7500 Du        
   8747 ****        58.7500  58.0000  48.0000 Du        
   8748 ****        58.7500  58.0000  48.2500 Du        
   8749 ****        58.7500  58.2500  46.2500 Du        
   8750 ****        58.7500  58.2500  46.5000 Du        
   8751 ****        58.7500  58.2500  46.7500 Du        
   8752 ****        58.7500  58.2500  47.0000 Du        
   8753 ****        58.7500  58.2500  47.2500 Du        
   8754 ****        58.7500  58.2500  47.5000 Du        
   8755 ****        58.7500  58.2500  47.7500 Du        
   8756 ****        58.7500  58.2500  48.0000 Du        
   8757 ****        58.7500  58.2500  48.2500 Du        
   8758 ****        58.7500  58.2500  48.5000 Du        
   8759 ****        58.7500  58.5000  46.2500 Du        
   8760 ****        58.7500  58.5000  46.5000 Du        
   8761 ****        58.7500  58.5000  46.7500 Du        
   8762 ****        58.7500  58.5000  47.0000 Du        
   8763 ****        58.7500  58.5000  47.2500 Du        
   8764 ****        58.7500  58.5000  47.5000 Du        
   8765 ****        58.7500  58.5000  47.7500 Du        
   8766 ****        58.7500  58.5000  48.0000 Du        
   8767 ****        58.7500  58.5000  48.2500 Du        
   8768 ****        58.7500  58.5000  48.5000 Du        
   8769 ****        58.7500  58.7500  46.0000 Du        
   8770 ****        58.7500  58.7500  46.2500 Du        
   8771 ****        58.7500  58.7500  46.5000 Du        
   8772 ****        58.7500  58.7500  46.7500 Du        
   8773 ****        58.7500  58.7500  47.0000 Du        
   8774 ****        58.7500  58.7500  47.2500 Du        
   8775 ****        58.7500  58.7500  47.5000 Du        
   8776 ****        58.7500  58.7500  47.7500 Du        
   8777 ****        58.7500  58.7500  48.0000 Du        
   8778 ****        58.7500  58.7500  48.2500 Du        
   8779 ****        58.7500  58.7500  48.5000 Du        
   8780 ****        58.7500  59.0000  45.7500 Du        
   8781 ****        58.7500  59.0000  46.0000 Du        
   8782 ****        58.7500  59.0000  46.2500 Du        
   8783 ****        58.7500  59.0000  46.5000 Du        
   8784 ****        58.7500  59.0000  46.7500 Du        
   8785 ****        58.7500  59.0000  47.0000 Du        
   8786 ****        58.7500  59.0000  47.2500 Du        
   8787 ****        58.7500  59.0000  47.5000 Du        
   8788 ****        58.7500  59.0000  47.7500 Du        
   8789 ****        58.7500  59.0000  48.0000 Du        
   8790 ****        58.7500  59.0000  48.2500 Du        
   8791 ****        58.7500  59.0000  48.5000 Du        
   8792 ****        58.7500  59.2500  45.7500 Du        
   8793 ****        58.7500  59.2500  46.0000 Du        
   8794 ****        58.7500  59.2500  46.2500 Du        
   8795 ****        58.7500  59.2500  46.5000 Du        
   8796 ****        58.7500  59.2500  46.7500 Du        
   8797 ****        58.7500  59.2500  47.0000 Du        
   8798 ****        58.7500  59.2500  47.2500 Du        
   8799 ****        58.7500  59.2500  47.5000 Du        
   8800 ****        58.7500  59.2500  47.7500 Du        
   8801 ****        58.7500  59.2500  48.0000 Du        
   8802 ****        58.7500  59.2500  48.2500 Du        
   8803 ****        58.7500  59.5000  45.5000 Du        
   8804 ****        58.7500  59.5000  45.7500 Du        
   8805 ****        58.7500  59.5000  46.0000 Du        
   8806 ****        58.7500  59.5000  46.2500 Du        
   8807 ****        58.7500  59.5000  46.5000 Du        
   8808 ****        58.7500  59.5000  46.7500 Du        
   8809 ****        58.7500  59.5000  47.0000 Du        
   8810 ****        58.7500  59.5000  47.2500 Du        
   8811 ****        58.7500  59.5000  47.5000 Du        
   8812 ****        58.7500  59.5000  47.7500 Du        
   8813 ****        58.7500  59.5000  48.0000 Du        
   8814 ****        58.7500  59.5000  48.2500 Du        
   8815 ****        58.7500  59.7500  45.5000 Du        
   8816 ****        58.7500  59.7500  45.7500 Du        
   8817 ****        58.7500  59.7500  46.0000 Du        
   8818 ****        58.7500  59.7500  46.2500 Du        
   8819 ****        58.7500  59.7500  46.5000 Du        
   8820 ****        58.7500  59.7500  46.7500 Du        
   8821 ****        58.7500  59.7500  47.0000 Du        
   8822 ****        58.7500  59.7500  47.2500 Du        
   8823 ****        58.7500  59.7500  47.5000 Du        
   8824 ****        58.7500  59.7500  47.7500 Du        
   8825 ****        58.7500  59.7500  48.0000 Du        
   8826 ****        58.7500  59.7500  48.2500 Du        
   8827 ****        58.7500  60.0000  45.5000 Du        
   8828 ****        58.7500  60.0000  45.7500 Du        
   8829 ****        58.7500  60.0000  46.0000 Du        
   8830 ****        58.7500  60.0000  46.2500 Du        
   8831 ****        58.7500  60.0000  46.5000 Du        
   8832 ****        58.7500  60.0000  46.7500 Du        
   8833 ****        58.7500  60.0000  47.0000 Du        
   8834 ****        58.7500  60.0000  47.2500 Du        
   8835 ****        58.7500  60.0000  47.5000 Du        
   8836 ****        58.7500  60.0000  47.7500 Du        
   8837 ****        58.7500  60.0000  48.0000 Du        
   8838 ****        58.7500  60.0000  48.2500 Du        
   8839 ****        58.7500  60.2500  45.2500 Du        
   8840 ****        58.7500  60.2500  45.5000 Du        
   8841 ****        58.7500  60.2500  45.7500 Du        
   8842 ****        58.7500  60.2500  46.0000 Du        
   8843 ****        58.7500  60.2500  46.2500 Du        
   8844 ****        58.7500  60.2500  46.5000 Du        
   8845 ****        58.7500  60.2500  46.7500 Du        
   8846 ****        58.7500  60.2500  47.0000 Du        
   8847 ****        58.7500  60.2500  47.2500 Du        
   8848 ****        58.7500  60.2500  47.5000 Du        
   8849 ****        58.7500  60.2500  47.7500 Du        
   8850 ****        58.7500  60.2500  48.0000 Du        
   8851 ****        58.7500  60.5000  45.5000 Du        
   8852 ****        58.7500  60.5000  45.7500 Du        
   8853 ****        58.7500  60.5000  46.0000 Du        
   8854 ****        58.7500  60.5000  46.2500 Du        
   8855 ****        58.7500  60.5000  46.5000 Du        
   8856 ****        58.7500  60.5000  46.7500 Du        
   8857 ****        58.7500  60.5000  47.0000 Du        
   8858 ****        58.7500  60.5000  47.2500 Du        
   8859 ****        58.7500  60.5000  47.5000 Du        
   8860 ****        58.7500  60.5000  47.7500 Du        
   8861 ****        58.7500  60.5000  48.0000 Du        
   8862 ****        58.7500  60.7500  45.5000 Du        
   8863 ****        58.7500  60.7500  45.7500 Du        
   8864 ****        58.7500  60.7500  46.0000 Du        
   8865 ****        58.7500  60.7500  46.2500 Du        
   8866 ****        58.7500  60.7500  46.5000 Du        
   8867 ****        58.7500  60.7500  46.7500 Du        
   8868 ****        58.7500  60.7500  47.0000 Du        
   8869 ****        58.7500  60.7500  47.2500 Du        
   8870 ****        58.7500  60.7500  47.5000 Du        
   8871 ****        58.7500  60.7500  47.7500 Du        
   8872 ****        58.7500  61.0000  45.7500 Du        
   8873 ****        58.7500  61.0000  46.0000 Du        
   8874 ****        58.7500  61.0000  46.2500 Du        
   8875 ****        58.7500  61.0000  46.5000 Du        
   8876 ****        58.7500  61.0000  46.7500 Du        
   8877 ****        58.7500  61.0000  47.0000 Du        
   8878 ****        58.7500  61.0000  47.2500 Du        
   8879 ****        58.7500  61.0000  47.5000 Du        
   8880 ****        58.7500  61.0000  47.7500 Du        
   8881 ****        58.7500  61.2500  46.5000 Du        
   8882 ****        58.7500  61.2500  46.7500 Du        
   8883 ****        58.7500  61.2500  47.0000 Du        
   8884 ****        58.7500  61.2500  47.2500 Du        
   8885 ****        58.7500  61.2500  47.5000 Du        
   8886 ****        59.0000  51.2500  45.0000 Du        
   8887 ****        59.0000  51.2500  45.2500 Du        
   8888 ****        59.0000  51.2500  45.5000 Du        
   8889 ****        59.0000  51.5000  45.0000 Du        
   8890 ****        59.0000  51.5000  45.2500 Du        
   8891 ****        59.0000  51.5000  45.5000 Du        
   8892 ****        59.0000  51.7500  45.0000 Du        
   8893 ****        59.0000  51.7500  45.2500 Du        
   8894 ****        59.0000  51.7500  45.5000 Du        
   8895 ****        59.0000  51.7500  45.7500 Du        
   8896 ****        59.0000  52.0000  45.0000 Du        
   8897 ****        59.0000  52.0000  45.2500 Du        
   8898 ****        59.0000  52.0000  45.5000 Du        
   8899 ****        59.0000  52.0000  45.7500 Du        
   8900 ****        59.0000  52.0000  46.0000 Du        
   8901 ****        59.0000  52.2500  45.0000 Du        
   8902 ****        59.0000  52.2500  45.2500 Du        
   8903 ****        59.0000  52.2500  45.5000 Du        
   8904 ****        59.0000  52.2500  45.7500 Du        
   8905 ****        59.0000  52.2500  46.0000 Du        
   8906 ****        59.0000  52.5000  45.0000 Du        
   8907 ****        59.0000  52.5000  45.2500 Du        
   8908 ****        59.0000  52.5000  45.5000 Du        
   8909 ****        59.0000  52.5000  45.7500 Du        
   8910 ****        59.0000  52.5000  46.0000 Du        
   8911 ****        59.0000  52.7500  45.0000 Du        
   8912 ****        59.0000  52.7500  45.2500 Du        
   8913 ****        59.0000  52.7500  45.5000 Du        
   8914 ****        59.0000  52.7500  45.7500 Du        
   8915 ****        59.0000  52.7500  46.0000 Du        
   8916 ****        59.0000  52.7500  46.2500 Du        
   8917 ****        59.0000  53.0000  45.0000 Du        
   8918 ****        59.0000  53.0000  45.2500 Du        
   8919 ****        59.0000  53.0000  45.5000 Du        
   8920 ****        59.0000  53.0000  45.7500 Du        
   8921 ****        59.0000  53.0000  46.0000 Du        
   8922 ****        59.0000  53.0000  46.2500 Du        
   8923 ****        59.0000  53.0000  46.5000 Du        
   8924 ****        59.0000  53.0000  46.7500 Du        
   8925 ****        59.0000  53.2500  45.0000 Du        
   8926 ****        59.0000  53.2500  45.2500 Du        
   8927 ****        59.0000  53.2500  45.5000 Du        
   8928 ****        59.0000  53.2500  45.7500 Du        
   8929 ****        59.0000  53.2500  46.0000 Du        
   8930 ****        59.0000  53.2500  46.2500 Du        
   8931 ****        59.0000  53.2500  46.5000 Du        
   8932 ****        59.0000  53.2500  46.7500 Du        
   8933 ****        59.0000  53.2500  47.0000 Du        
   8934 ****        59.0000  53.2500  47.2500 Du        
   8935 ****        59.0000  53.2500  47.5000 Du        
   8936 ****        59.0000  53.5000  45.2500 Du        
   8937 ****        59.0000  53.5000  45.5000 Du        
   8938 ****        59.0000  53.5000  45.7500 Du        
   8939 ****        59.0000  53.5000  46.0000 Du        
   8940 ****        59.0000  53.5000  46.2500 Du        
   8941 ****        59.0000  53.5000  46.5000 Du        
   8942 ****        59.0000  53.5000  46.7500 Du        
   8943 ****        59.0000  53.5000  47.0000 Du        
   8944 ****        59.0000  53.5000  47.2500 Du        
   8945 ****        59.0000  53.5000  47.5000 Du        
   8946 ****        59.0000  53.5000  47.7500 Du        
   8947 ****        59.0000  53.5000  48.0000 Du        
   8948 ****        59.0000  53.5000  48.2500 Du        
   8949 ****        59.0000  53.7500  45.5000 Du        
   8950 ****        59.0000  53.7500  45.7500 Du        
   8951 ****        59.0000  53.7500  46.0000 Du        
   8952 ****        59.0000  53.7500  46.2500 Du        
   8953 ****        59.0000  53.7500  46.5000 Du        
   8954 ****        59.0000  53.7500  46.7500 Du        
   8955 ****        59.0000  53.7500  47.0000 Du        
   8956 ****        59.0000  53.7500  47.2500 Du        
   8957 ****        59.0000  53.7500  47.5000 Du        
   8958 ****        59.0000  53.7500  47.7500 Du        
   8959 ****        59.0000  53.7500  48.0000 Du        
   8960 ****        59.0000  53.7500  48.2500 Du        
   8961 ****        59.0000  53.7500  48.5000 Du        
   8962 ****        59.0000  53.7500  48.7500 Du        
   8963 ****        59.0000  53.7500  49.0000 Du        
   8964 ****        59.0000  53.7500  49.2500 Du        
   8965 ****        59.0000  54.0000  45.7500 Du        
   8966 ****        59.0000  54.0000  46.0000 Du        
   8967 ****        59.0000  54.0000  46.2500 Du        
   8968 ****        59.0000  54.0000  46.5000 Du        
   8969 ****        59.0000  54.0000  46.7500 Du        
   8970 ****        59.0000  54.0000  47.0000 Du        
   8971 ****        59.0000  54.0000  47.2500 Du        
   8972 ****        59.0000  54.0000  47.5000 Du        
   8973 ****        59.0000  54.0000  47.7500 Du        
   8974 ****        59.0000  54.0000  48.0000 Du        
   8975 ****        59.0000  54.0000  48.2500 Du        
   8976 ****        59.0000  54.0000  48.5000 Du        
   8977 ****        59.0000  54.0000  48.7500 Du        
   8978 ****        59.0000  54.0000  49.0000 Du        
   8979 ****        59.0000  54.0000  49.2500 Du        
   8980 ****        59.0000  54.0000  49.5000 Du        
   8981 ****        59.0000  54.2500  46.0000 Du        
   8982 ****        59.0000  54.2500  46.2500 Du        
   8983 ****        59.0000  54.2500  46.5000 Du        
   8984 ****        59.0000  54.2500  46.7500 Du        
   8985 ****        59.0000  54.2500  47.0000 Du        
   8986 ****        59.0000  54.2500  47.2500 Du        
   8987 ****        59.0000  54.2500  47.5000 Du        
   8988 ****        59.0000  54.2500  47.7500 Du        
   8989 ****        59.0000  54.2500  48.0000 Du        
   8990 ****        59.0000  54.2500  48.2500 Du        
   8991 ****        59.0000  54.2500  48.5000 Du        
   8992 ****        59.0000  54.2500  48.7500 Du        
   8993 ****        59.0000  54.2500  49.0000 Du        
   8994 ****        59.0000  54.2500  49.2500 Du        
   8995 ****        59.0000  54.2500  49.5000 Du        
   8996 ****        59.0000  54.5000  46.5000 Du        
   8997 ****        59.0000  54.5000  46.7500 Du        
   8998 ****        59.0000  54.5000  47.0000 Du        
   8999 ****        59.0000  54.5000  47.2500 Du        
   9000 ****        59.0000  54.5000  47.5000 Du        
   9001 ****        59.0000  54.5000  47.7500 Du        
   9002 ****        59.0000  54.5000  48.0000 Du        
   9003 ****        59.0000  54.5000  48.2500 Du        
   9004 ****        59.0000  54.5000  48.5000 Du        
   9005 ****        59.0000  54.5000  48.7500 Du        
   9006 ****        59.0000  54.5000  49.0000 Du        
   9007 ****        59.0000  54.5000  49.2500 Du        
   9008 ****        59.0000  54.7500  46.5000 Du        
   9009 ****        59.0000  54.7500  46.7500 Du        
   9010 ****        59.0000  54.7500  47.0000 Du        
   9011 ****        59.0000  54.7500  47.2500 Du        
   9012 ****        59.0000  54.7500  47.5000 Du        
   9013 ****        59.0000  54.7500  47.7500 Du        
   9014 ****        59.0000  54.7500  48.0000 Du        
   9015 ****        59.0000  54.7500  48.2500 Du        
   9016 ****        59.0000  54.7500  48.5000 Du        
   9017 ****        59.0000  54.7500  48.7500 Du        
   9018 ****        59.0000  54.7500  49.0000 Du        
   9019 ****        59.0000  55.0000  46.5000 Du        
   9020 ****        59.0000  55.0000  46.7500 Du        
   9021 ****        59.0000  55.0000  47.0000 Du        
   9022 ****        59.0000  55.0000  47.2500 Du        
   9023 ****        59.0000  55.0000  47.5000 Du        
   9024 ****        59.0000  55.0000  47.7500 Du        
   9025 ****        59.0000  55.0000  48.0000 Du        
   9026 ****        59.0000  55.0000  48.2500 Du        
   9027 ****        59.0000  55.0000  48.5000 Du        
   9028 ****        59.0000  55.0000  48.7500 Du        
   9029 ****        59.0000  55.2500  46.7500 Du        
   9030 ****        59.0000  55.2500  47.0000 Du        
   9031 ****        59.0000  55.2500  47.2500 Du        
   9032 ****        59.0000  55.2500  47.5000 Du        
   9033 ****        59.0000  55.2500  47.7500 Du        
   9034 ****        59.0000  55.2500  48.0000 Du        
   9035 ****        59.0000  55.2500  48.2500 Du        
   9036 ****        59.0000  55.2500  48.5000 Du        
   9037 ****        59.0000  55.5000  47.0000 Du        
   9038 ****        59.0000  55.5000  47.2500 Du        
   9039 ****        59.0000  55.5000  47.5000 Du        
   9040 ****        59.0000  55.5000  47.7500 Du        
   9041 ****        59.0000  55.5000  48.0000 Du        
   9042 ****        59.0000  55.5000  48.2500 Du        
   9043 ****        59.0000  55.7500  46.7500 Du        
   9044 ****        59.0000  55.7500  47.0000 Du        
   9045 ****        59.0000  55.7500  47.2500 Du        
   9046 ****        59.0000  55.7500  47.5000 Du        
   9047 ****        59.0000  55.7500  47.7500 Du        
   9048 ****        59.0000  55.7500  48.0000 Du        
   9049 ****        59.0000  55.7500  48.2500 Du        
   9050 ****        59.0000  56.0000  46.7500 Du        
   9051 ****        59.0000  56.0000  47.0000 Du        
   9052 ****        59.0000  56.0000  47.2500 Du        
   9053 ****        59.0000  56.0000  47.5000 Du        
   9054 ****        59.0000  56.0000  47.7500 Du        
   9055 ****        59.0000  56.0000  48.0000 Du        
   9056 ****        59.0000  56.0000  48.2500 Du        
   9057 ****        59.0000  56.2500  46.7500 Du        
   9058 ****        59.0000  56.2500  47.0000 Du        
   9059 ****        59.0000  56.2500  47.2500 Du        
   9060 ****        59.0000  56.2500  47.5000 Du        
   9061 ****        59.0000  56.2500  47.7500 Du        
   9062 ****        59.0000  56.2500  48.0000 Du        
   9063 ****        59.0000  56.2500  48.2500 Du        
   9064 ****        59.0000  56.5000  46.7500 Du        
   9065 ****        59.0000  56.5000  47.0000 Du        
   9066 ****        59.0000  56.5000  47.2500 Du        
   9067 ****        59.0000  56.5000  47.5000 Du        
   9068 ****        59.0000  56.5000  47.7500 Du        
   9069 ****        59.0000  56.5000  48.0000 Du        
   9070 ****        59.0000  56.7500  46.7500 Du        
   9071 ****        59.0000  56.7500  47.0000 Du        
   9072 ****        59.0000  56.7500  47.2500 Du        
   9073 ****        59.0000  56.7500  47.5000 Du        
   9074 ****        59.0000  56.7500  47.7500 Du        
   9075 ****        59.0000  56.7500  48.0000 Du        
   9076 ****        59.0000  56.7500  48.2500 Du        
   9077 ****        59.0000  57.0000  46.7500 Du        
   9078 ****        59.0000  57.0000  47.0000 Du        
   9079 ****        59.0000  57.0000  47.2500 Du        
   9080 ****        59.0000  57.0000  47.5000 Du        
   9081 ****        59.0000  57.0000  47.7500 Du        
   9082 ****        59.0000  57.0000  48.0000 Du        
   9083 ****        59.0000  57.0000  48.2500 Du        
   9084 ****        59.0000  57.2500  46.7500 Du        
   9085 ****        59.0000  57.2500  47.0000 Du        
   9086 ****        59.0000  57.2500  47.2500 Du        
   9087 ****        59.0000  57.2500  47.5000 Du        
   9088 ****        59.0000  57.2500  47.7500 Du        
   9089 ****        59.0000  57.2500  48.0000 Du        
   9090 ****        59.0000  57.2500  48.2500 Du        
   9091 ****        59.0000  57.5000  46.5000 Du        
   9092 ****        59.0000  57.5000  46.7500 Du        
   9093 ****        59.0000  57.5000  47.0000 Du        
   9094 ****        59.0000  57.5000  47.2500 Du        
   9095 ****        59.0000  57.5000  47.5000 Du        
   9096 ****        59.0000  57.5000  47.7500 Du        
   9097 ****        59.0000  57.5000  48.0000 Du        
   9098 ****        59.0000  57.7500  46.5000 Du        
   9099 ****        59.0000  57.7500  46.7500 Du        
   9100 ****        59.0000  57.7500  47.0000 Du        
   9101 ****        59.0000  57.7500  47.2500 Du        
   9102 ****        59.0000  57.7500  47.5000 Du        
   9103 ****        59.0000  57.7500  47.7500 Du        
   9104 ****        59.0000  57.7500  48.0000 Du        
   9105 ****        59.0000  57.7500  48.2500 Du        
   9106 ****        59.0000  58.0000  46.0000 Du        
   9107 ****        59.0000  58.0000  46.2500 Du        
   9108 ****        59.0000  58.0000  46.5000 Du        
   9109 ****        59.0000  58.0000  46.7500 Du        
   9110 ****        59.0000  58.0000  47.0000 Du        
   9111 ****        59.0000  58.0000  47.2500 Du        
   9112 ****        59.0000  58.0000  47.5000 Du        
   9113 ****        59.0000  58.0000  47.7500 Du        
   9114 ****        59.0000  58.0000  48.0000 Du        
   9115 ****        59.0000  58.0000  48.2500 Du        
   9116 ****        59.0000  58.2500  46.0000 Du        
   9117 ****        59.0000  58.2500  46.2500 Du        
   9118 ****        59.0000  58.2500  46.5000 Du        
   9119 ****        59.0000  58.2500  46.7500 Du        
   9120 ****        59.0000  58.2500  47.0000 Du        
   9121 ****        59.0000  58.2500  47.2500 Du        
   9122 ****        59.0000  58.2500  47.5000 Du        
   9123 ****        59.0000  58.2500  47.7500 Du        
   9124 ****        59.0000  58.2500  48.0000 Du        
   9125 ****        59.0000  58.2500  48.2500 Du        
   9126 ****        59.0000  58.5000  46.0000 Du        
   9127 ****        59.0000  58.5000  46.2500 Du        
   9128 ****        59.0000  58.5000  46.5000 Du        
   9129 ****        59.0000  58.5000  46.7500 Du        
   9130 ****        59.0000  58.5000  47.0000 Du        
   9131 ****        59.0000  58.5000  47.2500 Du        
   9132 ****        59.0000  58.5000  47.5000 Du        
   9133 ****        59.0000  58.5000  47.7500 Du        
   9134 ****        59.0000  58.5000  48.0000 Du        
   9135 ****        59.0000  58.5000  48.2500 Du        
   9136 ****        59.0000  58.7500  45.7500 Du        
   9137 ****        59.0000  58.7500  46.0000 Du        
   9138 ****        59.0000  58.7500  46.2500 Du        
   9139 ****        59.0000  58.7500  46.5000 Du        
   9140 ****        59.0000  58.7500  46.7500 Du        
   9141 ****        59.0000  58.7500  47.0000 Du        
   9142 ****        59.0000  58.7500  47.2500 Du        
   9143 ****        59.0000  58.7500  47.5000 Du        
   9144 ****        59.0000  58.7500  47.7500 Du        
   9145 ****        59.0000  58.7500  48.0000 Du        
   9146 ****        59.0000  58.7500  48.2500 Du        
   9147 ****        59.0000  59.0000  45.7500 Du        
   9148 ****        59.0000  59.0000  46.0000 Du        
   9149 ****        59.0000  59.0000  46.2500 Du        
   9150 ****        59.0000  59.0000  46.5000 Du        
   9151 ****        59.0000  59.0000  46.7500 Du        
   9152 ****        59.0000  59.0000  47.0000 Du        
   9153 ****        59.0000  59.0000  47.2500 Du        
   9154 ****        59.0000  59.0000  47.5000 Du        
   9155 ****        59.0000  59.0000  47.7500 Du        
   9156 ****        59.0000  59.0000  48.0000 Du        
   9157 ****        59.0000  59.0000  48.2500 Du        
   9158 ****        59.0000  59.2500  45.5000 Du        
   9159 ****        59.0000  59.2500  45.7500 Du        
   9160 ****        59.0000  59.2500  46.0000 Du        
   9161 ****        59.0000  59.2500  46.2500 Du        
   9162 ****        59.0000  59.2500  46.5000 Du        
   9163 ****        59.0000  59.2500  46.7500 Du        
   9164 ****        59.0000  59.2500  47.0000 Du        
   9165 ****        59.0000  59.2500  47.2500 Du        
   9166 ****        59.0000  59.2500  47.5000 Du        
   9167 ****        59.0000  59.2500  47.7500 Du        
   9168 ****        59.0000  59.2500  48.0000 Du        
   9169 ****        59.0000  59.5000  45.5000 Du        
   9170 ****        59.0000  59.5000  45.7500 Du        
   9171 ****        59.0000  59.5000  46.0000 Du        
   9172 ****        59.0000  59.5000  46.2500 Du        
   9173 ****        59.0000  59.5000  46.5000 Du        
   9174 ****        59.0000  59.5000  46.7500 Du        
   9175 ****        59.0000  59.5000  47.0000 Du        
   9176 ****        59.0000  59.5000  47.2500 Du        
   9177 ****        59.0000  59.5000  47.5000 Du        
   9178 ****        59.0000  59.5000  47.7500 Du        
   9179 ****        59.0000  59.5000  48.0000 Du        
   9180 ****        59.0000  59.7500  45.5000 Du        
   9181 ****        59.0000  59.7500  45.7500 Du        
   9182 ****        59.0000  59.7500  46.0000 Du        
   9183 ****        59.0000  59.7500  46.2500 Du        
   9184 ****        59.0000  59.7500  46.5000 Du        
   9185 ****        59.0000  59.7500  46.7500 Du        
   9186 ****        59.0000  59.7500  47.0000 Du        
   9187 ****        59.0000  59.7500  47.2500 Du        
   9188 ****        59.0000  59.7500  47.5000 Du        
   9189 ****        59.0000  59.7500  47.7500 Du        
   9190 ****        59.0000  59.7500  48.0000 Du        
   9191 ****        59.0000  60.0000  45.2500 Du        
   9192 ****        59.0000  60.0000  45.5000 Du        
   9193 ****        59.0000  60.0000  45.7500 Du        
   9194 ****        59.0000  60.0000  46.0000 Du        
   9195 ****        59.0000  60.0000  46.2500 Du        
   9196 ****        59.0000  60.0000  46.5000 Du        
   9197 ****        59.0000  60.0000  46.7500 Du        
   9198 ****        59.0000  60.0000  47.0000 Du        
   9199 ****        59.0000  60.0000  47.2500 Du        
   9200 ****        59.0000  60.0000  47.5000 Du        
   9201 ****        59.0000  60.0000  47.7500 Du        
   9202 ****        59.0000  60.0000  48.0000 Du        
   9203 ****        59.0000  60.2500  45.2500 Du        
   9204 ****        59.0000  60.2500  45.5000 Du        
   9205 ****        59.0000  60.2500  45.7500 Du        
   9206 ****        59.0000  60.2500  46.0000 Du        
   9207 ****        59.0000  60.2500  46.2500 Du        
   9208 ****        59.0000  60.2500  46.5000 Du        
   9209 ****        59.0000  60.2500  46.7500 Du        
   9210 ****        59.0000  60.2500  47.0000 Du        
   9211 ****        59.0000  60.2500  47.2500 Du        
   9212 ****        59.0000  60.2500  47.5000 Du        
   9213 ****        59.0000  60.2500  47.7500 Du        
   9214 ****        59.0000  60.5000  45.5000 Du        
   9215 ****        59.0000  60.5000  45.7500 Du        
   9216 ****        59.0000  60.5000  46.0000 Du        
   9217 ****        59.0000  60.5000  46.2500 Du        
   9218 ****        59.0000  60.5000  46.5000 Du        
   9219 ****        59.0000  60.5000  46.7500 Du        
   9220 ****        59.0000  60.5000  47.0000 Du        
   9221 ****        59.0000  60.5000  47.2500 Du        
   9222 ****        59.0000  60.5000  47.5000 Du        
   9223 ****        59.0000  60.5000  47.7500 Du        
   9224 ****        59.0000  60.7500  45.5000 Du        
   9225 ****        59.0000  60.7500  45.7500 Du        
   9226 ****        59.0000  60.7500  46.0000 Du        
   9227 ****        59.0000  60.7500  46.2500 Du        
   9228 ****        59.0000  60.7500  46.5000 Du        
   9229 ****        59.0000  60.7500  46.7500 Du        
   9230 ****        59.0000  60.7500  47.0000 Du        
   9231 ****        59.0000  60.7500  47.2500 Du        
   9232 ****        59.0000  60.7500  47.5000 Du        
   9233 ****        59.0000  60.7500  47.7500 Du        
   9234 ****        59.0000  61.0000  45.7500 Du        
   9235 ****        59.0000  61.0000  46.0000 Du        
   9236 ****        59.0000  61.0000  46.2500 Du        
   9237 ****        59.0000  61.0000  46.5000 Du        
   9238 ****        59.0000  61.0000  46.7500 Du        
   9239 ****        59.0000  61.0000  47.0000 Du        
   9240 ****        59.0000  61.0000  47.2500 Du        
   9241 ****        59.0000  61.0000  47.5000 Du        
   9242 ****        59.0000  61.2500  46.5000 Du        
   9243 ****        59.0000  61.2500  46.7500 Du        
   9244 ****        59.0000  61.2500  47.0000 Du        
   9245 ****        59.0000  61.2500  47.2500 Du        
   9246 ****        59.2500  51.5000  45.0000 Du        
   9247 ****        59.2500  51.5000  45.2500 Du        
   9248 ****        59.2500  51.7500  45.0000 Du        
   9249 ****        59.2500  51.7500  45.2500 Du        
   9250 ****        59.2500  51.7500  45.5000 Du        
   9251 ****        59.2500  52.0000  45.0000 Du        
   9252 ****        59.2500  52.0000  45.2500 Du        
   9253 ****        59.2500  52.0000  45.5000 Du        
   9254 ****        59.2500  52.2500  45.0000 Du        
   9255 ****        59.2500  52.2500  45.2500 Du        
   9256 ****        59.2500  52.2500  45.5000 Du        
   9257 ****        59.2500  52.2500  45.7500 Du        
   9258 ****        59.2500  52.5000  45.0000 Du        
   9259 ****        59.2500  52.5000  45.2500 Du        
   9260 ****        59.2500  52.5000  45.5000 Du        
   9261 ****        59.2500  52.7500  45.0000 Du        
   9262 ****        59.2500  52.7500  45.2500 Du        
   9263 ****        59.2500  52.7500  45.5000 Du        
   9264 ****        59.2500  52.7500  45.7500 Du        
   9265 ****        59.2500  53.0000  45.0000 Du        
   9266 ****        59.2500  53.0000  45.2500 Du        
   9267 ****        59.2500  53.0000  45.5000 Du        
   9268 ****        59.2500  53.0000  45.7500 Du        
   9269 ****        59.2500  53.2500  45.0000 Du        
   9270 ****        59.2500  53.2500  45.2500 Du        
   9271 ****        59.2500  53.2500  45.5000 Du        
   9272 ****        59.2500  53.2500  45.7500 Du        
   9273 ****        59.2500  53.2500  46.0000 Du        
   9274 ****        59.2500  53.5000  45.0000 Du        
   9275 ****        59.2500  53.5000  45.2500 Du        
   9276 ****        59.2500  53.5000  45.5000 Du        
   9277 ****        59.2500  53.5000  45.7500 Du        
   9278 ****        59.2500  53.5000  46.0000 Du        
   9279 ****        59.2500  53.5000  46.2500 Du        
   9280 ****        59.2500  53.7500  45.2500 Du        
   9281 ****        59.2500  53.7500  45.5000 Du        
   9282 ****        59.2500  53.7500  45.7500 Du        
   9283 ****        59.2500  53.7500  46.0000 Du        
   9284 ****        59.2500  53.7500  46.2500 Du        
   9285 ****        59.2500  53.7500  46.5000 Du        
   9286 ****        59.2500  53.7500  46.7500 Du        
   9287 ****        59.2500  53.7500  47.0000 Du        
   9288 ****        59.2500  53.7500  47.2500 Du        
   9289 ****        59.2500  53.7500  47.5000 Du        
   9290 ****        59.2500  53.7500  47.7500 Du        
   9291 ****        59.2500  53.7500  48.0000 Du        
   9292 ****        59.2500  53.7500  48.2500 Du        
   9293 ****        59.2500  53.7500  48.5000 Du        
   9294 ****        59.2500  53.7500  48.7500 Du        
   9295 ****        59.2500  53.7500  49.0000 Du        
   9296 ****        59.2500  53.7500  49.2500 Du        
   9297 ****        59.2500  53.7500  49.5000 Du        
   9298 ****        59.2500  53.7500  49.7500 Du        
   9299 ****        59.2500  54.0000  46.0000 Du        
   9300 ****        59.2500  54.0000  46.2500 Du        
   9301 ****        59.2500  54.0000  46.5000 Du        
   9302 ****        59.2500  54.0000  46.7500 Du        
   9303 ****        59.2500  54.0000  47.0000 Du        
   9304 ****        59.2500  54.0000  47.2500 Du        
   9305 ****        59.2500  54.0000  47.5000 Du        
   9306 ****        59.2500  54.0000  47.7500 Du        
   9307 ****        59.2500  54.0000  48.0000 Du        
   9308 ****        59.2500  54.0000  48.2500 Du        
   9309 ****        59.2500  54.0000  48.5000 Du        
   9310 ****        59.2500  54.0000  48.7500 Du        
   9311 ****        59.2500  54.0000  49.0000 Du        
   9312 ****        59.2500  54.0000  49.2500 Du        
   9313 ****        59.2500  54.0000  49.5000 Du        
   9314 ****        59.2500  54.0000  49.7500 Du        
   9315 ****        59.2500  54.2500  46.0000 Du        
   9316 ****        59.2500  54.2500  46.2500 Du        
   9317 ****        59.2500  54.2500  46.5000 Du        
   9318 ****        59.2500  54.2500  46.7500 Du        
   9319 ****        59.2500  54.2500  47.0000 Du        
   9320 ****        59.2500  54.2500  47.2500 Du        
   9321 ****        59.2500  54.2500  47.5000 Du        
   9322 ****        59.2500  54.2500  47.7500 Du        
   9323 ****        59.2500  54.2500  48.0000 Du        
   9324 ****        59.2500  54.2500  48.2500 Du        
   9325 ****        59.2500  54.2500  48.5000 Du        
   9326 ****        59.2500  54.2500  48.7500 Du        
   9327 ****        59.2500  54.2500  49.0000 Du        
   9328 ****        59.2500  54.2500  49.2500 Du        
   9329 ****        59.2500  54.2500  49.5000 Du        
   9330 ****        59.2500  54.2500  49.7500 Du        
   9331 ****        59.2500  54.5000  46.5000 Du        
   9332 ****        59.2500  54.5000  46.7500 Du        
   9333 ****        59.2500  54.5000  47.0000 Du        
   9334 ****        59.2500  54.5000  47.2500 Du        
   9335 ****        59.2500  54.5000  47.5000 Du        
   9336 ****        59.2500  54.5000  47.7500 Du        
   9337 ****        59.2500  54.5000  48.0000 Du        
   9338 ****        59.2500  54.5000  48.2500 Du        
   9339 ****        59.2500  54.5000  48.5000 Du        
   9340 ****        59.2500  54.5000  48.7500 Du        
   9341 ****        59.2500  54.5000  49.0000 Du        
   9342 ****        59.2500  54.5000  49.2500 Du        
   9343 ****        59.2500  54.5000  49.5000 Du        
   9344 ****        59.2500  54.5000  49.7500 Du        
   9345 ****        59.2500  54.7500  46.5000 Du        
   9346 ****        59.2500  54.7500  46.7500 Du        
   9347 ****        59.2500  54.7500  47.0000 Du        
   9348 ****        59.2500  54.7500  47.2500 Du        
   9349 ****        59.2500  54.7500  47.5000 Du        
   9350 ****        59.2500  54.7500  47.7500 Du        
   9351 ****        59.2500  54.7500  48.0000 Du        
   9352 ****        59.2500  54.7500  48.2500 Du        
   9353 ****        59.2500  54.7500  48.5000 Du        
   9354 ****        59.2500  54.7500  48.7500 Du        
   9355 ****        59.2500  54.7500  49.0000 Du        
   9356 ****        59.2500  54.7500  49.2500 Du        
   9357 ****        59.2500  54.7500  49.5000 Du        
   9358 ****        59.2500  55.0000  46.5000 Du        
   9359 ****        59.2500  55.0000  46.7500 Du        
   9360 ****        59.2500  55.0000  47.0000 Du        
   9361 ****        59.2500  55.0000  47.2500 Du        
   9362 ****        59.2500  55.0000  47.5000 Du        
   9363 ****        59.2500  55.0000  47.7500 Du        
   9364 ****        59.2500  55.0000  48.0000 Du        
   9365 ****        59.2500  55.0000  48.2500 Du        
   9366 ****        59.2500  55.0000  48.5000 Du        
   9367 ****        59.2500  55.0000  48.7500 Du        
   9368 ****        59.2500  55.0000  49.0000 Du        
   9369 ****        59.2500  55.0000  49.2500 Du        
   9370 ****        59.2500  55.0000  49.5000 Du        
   9371 ****        59.2500  55.2500  46.7500 Du        
   9372 ****        59.2500  55.2500  47.0000 Du        
   9373 ****        59.2500  55.2500  47.2500 Du        
   9374 ****        59.2500  55.2500  47.5000 Du        
   9375 ****        59.2500  55.2500  47.7500 Du        
   9376 ****        59.2500  55.2500  48.0000 Du        
   9377 ****        59.2500  55.2500  48.2500 Du        
   9378 ****        59.2500  55.2500  48.5000 Du        
   9379 ****        59.2500  55.2500  48.7500 Du        
   9380 ****        59.2500  55.2500  49.0000 Du        
   9381 ****        59.2500  55.2500  49.2500 Du        
   9382 ****        59.2500  55.5000  47.0000 Du        
   9383 ****        59.2500  55.5000  47.2500 Du        
   9384 ****        59.2500  55.5000  47.5000 Du        
   9385 ****        59.2500  55.5000  47.7500 Du        
   9386 ****        59.2500  55.5000  48.0000 Du        
   9387 ****        59.2500  55.5000  48.2500 Du        
   9388 ****        59.2500  55.5000  48.5000 Du        
   9389 ****        59.2500  55.5000  48.7500 Du        
   9390 ****        59.2500  55.7500  46.7500 Du        
   9391 ****        59.2500  55.7500  47.0000 Du        
   9392 ****        59.2500  55.7500  47.2500 Du        
   9393 ****        59.2500  55.7500  47.5000 Du        
   9394 ****        59.2500  55.7500  47.7500 Du        
   9395 ****        59.2500  55.7500  48.0000 Du        
   9396 ****        59.2500  55.7500  48.2500 Du        
   9397 ****        59.2500  56.0000  46.7500 Du        
   9398 ****        59.2500  56.0000  47.0000 Du        
   9399 ****        59.2500  56.0000  47.2500 Du        
   9400 ****        59.2500  56.0000  47.5000 Du        
   9401 ****        59.2500  56.0000  47.7500 Du        
   9402 ****        59.2500  56.2500  46.7500 Du        
   9403 ****        59.2500  56.2500  47.0000 Du        
   9404 ****        59.2500  56.2500  47.2500 Du        
   9405 ****        59.2500  56.2500  47.5000 Du        
   9406 ****        59.2500  56.2500  47.7500 Du        
   9407 ****        59.2500  56.7500  46.7500 Du        
   9408 ****        59.2500  56.7500  47.0000 Du        
   9409 ****        59.2500  56.7500  47.2500 Du        
   9410 ****        59.2500  57.0000  46.7500 Du        
   9411 ****        59.2500  57.0000  47.0000 Du        
   9412 ****        59.2500  57.0000  47.2500 Du        
   9413 ****        59.2500  57.0000  47.5000 Du        
   9414 ****        59.2500  57.2500  46.7500 Du        
   9415 ****        59.2500  57.2500  47.0000 Du        
   9416 ****        59.2500  57.2500  47.2500 Du        
   9417 ****        59.2500  57.2500  47.5000 Du        
   9418 ****        59.2500  57.5000  46.5000 Du        
   9419 ****        59.2500  57.5000  46.7500 Du        
   9420 ****        59.2500  57.5000  47.0000 Du        
   9421 ****        59.2500  57.5000  47.2500 Du        
   9422 ****        59.2500  57.5000  47.5000 Du        
   9423 ****        59.2500  57.5000  47.7500 Du        
   9424 ****        59.2500  57.7500  46.5000 Du        
   9425 ****        59.2500  57.7500  46.7500 Du        
   9426 ****        59.2500  57.7500  47.0000 Du        
   9427 ****        59.2500  57.7500  47.2500 Du        
   9428 ****        59.2500  57.7500  47.5000 Du        
   9429 ****        59.2500  57.7500  47.7500 Du        
   9430 ****        59.2500  58.0000  46.0000 Du        
   9431 ****        59.2500  58.0000  46.2500 Du        
   9432 ****        59.2500  58.0000  46.5000 Du        
   9433 ****        59.2500  58.0000  46.7500 Du        
   9434 ****        59.2500  58.0000  47.0000 Du        
   9435 ****        59.2500  58.0000  47.2500 Du        
   9436 ****        59.2500  58.0000  47.5000 Du        
   9437 ****        59.2500  58.0000  47.7500 Du        
   9438 ****        59.2500  58.2500  46.0000 Du        
   9439 ****        59.2500  58.2500  46.2500 Du        
   9440 ****        59.2500  58.2500  46.5000 Du        
   9441 ****        59.2500  58.2500  46.7500 Du        
   9442 ****        59.2500  58.2500  47.0000 Du        
   9443 ****        59.2500  58.2500  47.2500 Du        
   9444 ****        59.2500  58.2500  47.5000 Du        
   9445 ****        59.2500  58.5000  46.2500 Du        
   9446 ****        59.2500  58.5000  46.5000 Du        
   9447 ****        59.2500  58.5000  46.7500 Du        
   9448 ****        59.2500  58.5000  47.0000 Du        
   9449 ****        59.2500  58.5000  47.2500 Du        
   9450 ****        59.2500  58.5000  47.5000 Du        
   9451 ****        59.2500  58.7500  46.0000 Du        
   9452 ****        59.2500  58.7500  46.2500 Du        
   9453 ****        59.2500  58.7500  46.5000 Du        
   9454 ****        59.2500  58.7500  46.7500 Du        
   9455 ****        59.2500  58.7500  47.0000 Du        
   9456 ****        59.2500  58.7500  47.2500 Du        
   9457 ****        59.2500  58.7500  47.5000 Du        
   9458 ****        59.2500  59.0000  45.7500 Du        
   9459 ****        59.2500  59.0000  46.0000 Du        
   9460 ****        59.2500  59.0000  46.2500 Du        
   9461 ****        59.2500  59.0000  47.0000 Du        
   9462 ****        59.2500  59.0000  47.2500 Du        
   9463 ****        59.2500  59.2500  45.5000 Du        
   9464 ****        59.2500  59.2500  45.7500 Du        
   9465 ****        59.2500  59.2500  46.0000 Du        
   9466 ****        59.2500  59.2500  46.2500 Du        
   9467 ****        59.2500  59.5000  45.5000 Du        
   9468 ****        59.2500  59.5000  45.7500 Du        
   9469 ****        59.2500  59.5000  46.0000 Du        
   9470 ****        59.2500  59.5000  46.2500 Du        
   9471 ****        59.2500  59.5000  46.5000 Du        
   9472 ****        59.2500  59.5000  46.7500 Du        
   9473 ****        59.2500  59.5000  47.0000 Du        
   9474 ****        59.2500  59.5000  47.2500 Du        
   9475 ****        59.2500  59.7500  45.5000 Du        
   9476 ****        59.2500  59.7500  45.7500 Du        
   9477 ****        59.2500  59.7500  46.0000 Du        
   9478 ****        59.2500  59.7500  46.2500 Du        
   9479 ****        59.2500  59.7500  46.5000 Du        
   9480 ****        59.2500  59.7500  46.7500 Du        
   9481 ****        59.2500  59.7500  47.0000 Du        
   9482 ****        59.2500  59.7500  47.2500 Du        
   9483 ****        59.2500  60.0000  45.5000 Du        
   9484 ****        59.2500  60.0000  45.7500 Du        
   9485 ****        59.2500  60.0000  46.0000 Du        
   9486 ****        59.2500  60.0000  46.2500 Du        
   9487 ****        59.2500  60.0000  46.5000 Du        
   9488 ****        59.2500  60.0000  46.7500 Du        
   9489 ****        59.2500  60.0000  47.0000 Du        
   9490 ****        59.2500  60.0000  47.2500 Du        
   9491 ****        59.2500  60.2500  45.7500 Du        
   9492 ****        59.2500  60.2500  46.0000 Du        
   9493 ****        59.2500  60.2500  46.2500 Du        
   9494 ****        59.2500  60.2500  46.5000 Du        
   9495 ****        59.2500  60.2500  46.7500 Du        
   9496 ****        59.2500  60.2500  47.0000 Du        
   9497 ****        59.2500  60.2500  47.2500 Du        
   9498 ****        59.2500  60.5000  45.7500 Du        
   9499 ****        59.2500  60.5000  46.0000 Du        
   9500 ****        59.2500  60.5000  46.2500 Du        
   9501 ****        59.2500  60.5000  46.5000 Du        
   9502 ****        59.2500  60.5000  46.7500 Du        
   9503 ****        59.2500  60.5000  47.0000 Du        
   9504 ****        59.2500  60.5000  47.2500 Du        
   9505 ****        59.2500  60.5000  47.5000 Du        
   9506 ****        59.2500  60.7500  45.7500 Du        
   9507 ****        59.2500  60.7500  46.0000 Du        
   9508 ****        59.2500  60.7500  46.2500 Du        
   9509 ****        59.2500  60.7500  46.5000 Du        
   9510 ****        59.2500  60.7500  46.7500 Du        
   9511 ****        59.2500  60.7500  47.0000 Du        
   9512 ****        59.2500  60.7500  47.2500 Du        
   9513 ****        59.2500  60.7500  47.5000 Du        
   9514 ****        59.2500  61.0000  46.0000 Du        
   9515 ****        59.2500  61.0000  46.2500 Du        
   9516 ****        59.2500  61.0000  46.5000 Du        
   9517 ****        59.2500  61.0000  46.7500 Du        
   9518 ****        59.2500  61.0000  47.0000 Du        
   9519 ****        59.2500  61.0000  47.2500 Du        
   9520 ****        59.2500  61.2500  46.5000 Du        
   9521 ****        59.2500  61.2500  46.7500 Du        
   9522 ****        59.2500  61.2500  47.0000 Du        
   9523 ****        59.5000  51.7500  45.0000 Du        
   9524 ****        59.5000  52.0000  45.0000 Du        
   9525 ****        59.5000  52.0000  45.2500 Du        
   9526 ****        59.5000  52.2500  45.0000 Du        
   9527 ****        59.5000  52.2500  45.2500 Du        
   9528 ****        59.5000  52.5000  45.0000 Du        
   9529 ****        59.5000  52.5000  45.2500 Du        
   9530 ****        59.5000  52.7500  45.0000 Du        
   9531 ****        59.5000  52.7500  45.2500 Du        
   9532 ****        59.5000  53.0000  45.0000 Du        
   9533 ****        59.5000  53.0000  45.2500 Du        
   9534 ****        59.5000  53.0000  45.5000 Du        
   9535 ****        59.5000  53.2500  45.0000 Du        
   9536 ****        59.5000  53.2500  45.2500 Du        
   9537 ****        59.5000  53.2500  45.5000 Du        
   9538 ****        59.5000  53.7500  48.5000 Du        
   9539 ****        59.5000  53.7500  48.7500 Du        
   9540 ****        59.5000  53.7500  49.0000 Du        
   9541 ****        59.5000  53.7500  49.2500 Du        
   9542 ****        59.5000  53.7500  49.5000 Du        
   9543 ****        59.5000  53.7500  49.7500 Du        
   9544 ****        59.5000  53.7500  50.0000 Du        
   9545 ****        59.5000  54.0000  47.7500 Du        
   9546 ****        59.5000  54.0000  48.0000 Du        
   9547 ****        59.5000  54.0000  48.2500 Du        
   9548 ****        59.5000  54.0000  48.5000 Du        
   9549 ****        59.5000  54.0000  48.7500 Du        
   9550 ****        59.5000  54.0000  49.0000 Du        
   9551 ****        59.5000  54.0000  49.2500 Du        
   9552 ****        59.5000  54.0000  49.5000 Du        
   9553 ****        59.5000  54.0000  49.7500 Du        
   9554 ****        59.5000  54.0000  50.0000 Du        
   9555 ****        59.5000  54.2500  46.5000 Du        
   9556 ****        59.5000  54.2500  46.7500 Du        
   9557 ****        59.5000  54.2500  47.5000 Du        
   9558 ****        59.5000  54.2500  47.7500 Du        
   9559 ****        59.5000  54.2500  48.0000 Du        
   9560 ****        59.5000  54.2500  48.2500 Du        
   9561 ****        59.5000  54.2500  48.5000 Du        
   9562 ****        59.5000  54.2500  48.7500 Du        
   9563 ****        59.5000  54.2500  49.0000 Du        
   9564 ****        59.5000  54.2500  49.2500 Du        
   9565 ****        59.5000  54.2500  49.5000 Du        
   9566 ****        59.5000  54.2500  49.7500 Du        
   9567 ****        59.5000  54.2500  50.0000 Du        
   9568 ****        59.5000  54.5000  46.5000 Du        
   9569 ****        59.5000  54.5000  46.7500 Du        
   9570 ****        59.5000  54.5000  47.0000 Du        
   9571 ****        59.5000  54.5000  47.2500 Du        
   9572 ****        59.5000  54.5000  47.5000 Du        
   9573 ****        59.5000  54.5000  47.7500 Du        
   9574 ****        59.5000  54.5000  48.0000 Du        
   9575 ****        59.5000  54.5000  48.2500 Du        
   9576 ****        59.5000  54.5000  48.5000 Du        
   9577 ****        59.5000  54.5000  48.7500 Du        
   9578 ****        59.5000  54.5000  49.0000 Du        
   9579 ****        59.5000  54.5000  49.2500 Du        
   9580 ****        59.5000  54.5000  49.5000 Du        
   9581 ****        59.5000  54.5000  49.7500 Du        
   9582 ****        59.5000  54.5000  50.0000 Du        
   9583 ****        59.5000  54.7500  46.5000 Du        
   9584 ****        59.5000  54.7500  46.7500 Du        
   9585 ****        59.5000  54.7500  47.0000 Du        
   9586 ****        59.5000  54.7500  47.2500 Du        
   9587 ****        59.5000  54.7500  47.5000 Du        
   9588 ****        59.5000  54.7500  47.7500 Du        
   9589 ****        59.5000  54.7500  48.0000 Du        
   9590 ****        59.5000  54.7500  48.2500 Du        
   9591 ****        59.5000  54.7500  48.5000 Du        
   9592 ****        59.5000  54.7500  48.7500 Du        
   9593 ****        59.5000  54.7500  49.0000 Du        
   9594 ****        59.5000  54.7500  49.2500 Du        
   9595 ****        59.5000  54.7500  49.5000 Du        
   9596 ****        59.5000  54.7500  49.7500 Du        
   9597 ****        59.5000  54.7500  50.0000 Du        
   9598 ****        59.5000  55.0000  46.5000 Du        
   9599 ****        59.5000  55.0000  46.7500 Du        
   9600 ****        59.5000  55.0000  47.0000 Du        
   9601 ****        59.5000  55.0000  47.2500 Du        
   9602 ****        59.5000  55.0000  47.5000 Du        
   9603 ****        59.5000  55.0000  47.7500 Du        
   9604 ****        59.5000  55.0000  48.0000 Du        
   9605 ****        59.5000  55.0000  48.2500 Du        
   9606 ****        59.5000  55.0000  48.5000 Du        
   9607 ****        59.5000  55.0000  48.7500 Du        
   9608 ****        59.5000  55.0000  49.0000 Du        
   9609 ****        59.5000  55.0000  49.2500 Du        
   9610 ****        59.5000  55.0000  49.5000 Du        
   9611 ****        59.5000  55.0000  49.7500 Du        
   9612 ****        59.5000  55.0000  50.0000 Du        
   9613 ****        59.5000  55.2500  47.0000 Du        
   9614 ****        59.5000  55.2500  47.2500 Du        
   9615 ****        59.5000  55.2500  47.5000 Du        
   9616 ****        59.5000  55.2500  47.7500 Du        
   9617 ****        59.5000  55.2500  48.0000 Du        
   9618 ****        59.5000  55.2500  48.5000 Du        
   9619 ****        59.5000  55.2500  48.7500 Du        
   9620 ****        59.5000  55.2500  49.0000 Du        
   9621 ****        59.5000  55.2500  49.2500 Du        
   9622 ****        59.5000  55.2500  49.5000 Du        
   9623 ****        59.5000  55.2500  49.7500 Du        
   9624 ****        59.5000  55.5000  49.5000 Du        
   9625 ****        59.5000  60.5000  46.0000 Du        
   9626 ****        59.5000  60.5000  46.5000 Du        
   9627 ****        59.5000  60.7500  46.0000 Du        
   9628 ****        59.5000  60.7500  46.2500 Du        
   9629 ****        59.5000  60.7500  46.5000 Du        
   9630 ****        59.5000  60.7500  46.7500 Du        
   9631 ****        59.5000  61.0000  46.2500 Du        
   9632 ****        59.5000  61.0000  46.5000 Du        
   9633 ****        59.5000  61.0000  46.7500 Du        
   9634 ****        59.5000  61.2500  46.5000 Du        
   9635 ****        59.5000  61.2500  46.7500 Du        
   9636 ****        59.7500  52.2500  45.0000 Du        
   9637 ****        59.7500  52.5000  45.0000 Du        
   9638 ****        59.7500  52.7500  45.0000 Du        
   9639 ****        59.7500  53.0000  45.0000 Du        
   9640 ****        59.7500  53.2500  45.0000 Du        
   9641 ****        59.7500  53.2500  45.2500 Du        
   9642 ****        59.7500  53.5000  45.0000 Du        
   9643 ****        59.7500  53.7500  49.0000 Du        
   9644 ****        59.7500  53.7500  49.2500 Du        
   9645 ****        59.7500  53.7500  49.5000 Du        
   9646 ****        59.7500  53.7500  49.7500 Du        
   9647 ****        59.7500  53.7500  50.0000 Du        
   9648 ****        59.7500  53.7500  50.2500 Du        
   9649 ****        59.7500  54.0000  48.7500 Du        
   9650 ****        59.7500  54.0000  49.0000 Du        
   9651 ****        59.7500  54.0000  49.2500 Du        
   9652 ****        59.7500  54.0000  49.5000 Du        
   9653 ****        59.7500  54.0000  49.7500 Du        
   9654 ****        59.7500  54.0000  50.0000 Du        
   9655 ****        59.7500  54.0000  50.2500 Du        
   9656 ****        59.7500  54.2500  48.5000 Du        
   9657 ****        59.7500  54.2500  48.7500 Du        
   9658 ****        59.7500  54.2500  49.0000 Du        
   9659 ****        59.7500  54.2500  49.2500 Du        
   9660 ****        59.7500  54.2500  49.5000 Du        
   9661 ****        59.7500  54.2500  49.7500 Du        
   9662 ****        59.7500  54.2500  50.0000 Du        
   9663 ****        59.7500  54.2500  50.2500 Du        
   9664 ****        59.7500  54.5000  48.5000 Du        
   9665 ****        59.7500  54.5000  48.7500 Du        
   9666 ****        59.7500  54.5000  49.0000 Du        
   9667 ****        59.7500  54.5000  49.2500 Du        
   9668 ****        59.7500  54.5000  49.5000 Du        
   9669 ****        59.7500  54.5000  49.7500 Du        
   9670 ****        59.7500  54.5000  50.0000 Du        
   9671 ****        59.7500  54.5000  50.2500 Du        
   9672 ****        59.7500  54.7500  48.5000 Du        
   9673 ****        59.7500  54.7500  48.7500 Du        
   9674 ****        59.7500  54.7500  49.0000 Du        
   9675 ****        59.7500  54.7500  49.2500 Du        
   9676 ****        59.7500  54.7500  49.5000 Du        
   9677 ****        59.7500  54.7500  49.7500 Du        
   9678 ****        59.7500  54.7500  50.0000 Du        
   9679 ****        59.7500  54.7500  50.2500 Du        
   9680 ****        59.7500  55.0000  46.5000 Du        
   9681 ****        59.7500  55.0000  49.0000 Du        
   9682 ****        59.7500  55.0000  49.2500 Du        
   9683 ****        59.7500  55.0000  49.5000 Du        
   9684 ****        59.7500  55.0000  49.7500 Du        
   9685 ****        59.7500  55.0000  50.0000 Du        
   9686 ****        59.7500  55.2500  49.5000 Du        
   9687 ****        59.7500  55.2500  49.7500 Du        
   9688 ****        60.0000  53.0000  45.0000 Du        
   9689 ****        60.0000  53.2500  45.0000 Du        
   9690 ****        60.0000  53.7500  49.5000 Du        
   9691 ****        60.0000  53.7500  49.7500 Du        
   9692 ****        60.0000  53.7500  50.0000 Du        
   9693 ****        60.0000  53.7500  50.2500 Du        
   9694 ****        60.0000  54.0000  49.2500 Du        
   9695 ****        60.0000  54.0000  49.5000 Du        
   9696 ****        60.0000  54.0000  49.7500 Du        
   9697 ****        60.0000  54.0000  50.0000 Du        
   9698 ****        60.0000  54.0000  50.2500 Du        
   9699 ****        60.0000  54.0000  50.5000 Du        
   9700 ****        60.0000  54.2500  49.0000 Du        
   9701 ****        60.0000  54.2500  49.2500 Du        
   9702 ****        60.0000  54.2500  49.5000 Du        
   9703 ****        60.0000  54.2500  49.7500 Du        
   9704 ****        60.0000  54.2500  50.0000 Du        
   9705 ****        60.0000  54.2500  50.2500 Du        
   9706 ****        60.0000  54.2500  50.5000 Du        
   9707 ****        60.0000  54.5000  49.0000 Du        
   9708 ****        60.0000  54.5000  49.2500 Du        
   9709 ****        60.0000  54.5000  49.5000 Du        
   9710 ****        60.0000  54.5000  49.7500 Du        
   9711 ****        60.0000  54.5000  50.0000 Du        
   9712 ****        60.0000  54.5000  50.2500 Du        
   9713 ****        60.0000  54.7500  49.2500 Du        
   9714 ****        60.0000  54.7500  49.5000 Du        
   9715 ****        60.0000  54.7500  49.7500 Du        
   9716 ****        60.0000  54.7500  50.0000 Du        
   9717 ****        60.0000  54.7500  50.2500 Du        
   9718 ****        60.0000  55.0000  49.7500 Du        
   9719 ****        60.0000  55.0000  50.0000 Du        
   9720 ****        60.2500  54.0000  49.7500 Du        
   9721 ****        60.2500  54.0000  50.0000 Du        
   9722 ****        60.2500  54.0000  50.2500 Du        
   9723 ****        60.2500  54.2500  49.5000 Du        
   9724 ****        60.2500  54.2500  49.7500 Du        
   9725 ****        60.2500  54.2500  50.0000 Du        
   9726 ****        60.2500  54.2500  50.2500 Du        
   9727 ****        60.2500  54.2500  50.5000 Du        
   9728 ****        60.2500  54.5000  49.7500 Du        
   9729 ****        60.2500  54.5000  50.0000 Du        
   9730 ****        60.2500  54.5000  50.2500 Du        
   9731 ****        60.2500  54.7500  50.0000 Du        
   9732 ****        61.0000  55.0000  45.0000 Du        
   9733 ****        61.0000  55.0000  45.2500 Du        
   9734 ****        61.0000  55.2500  45.0000 Du        
   9735 ****        61.0000  55.2500  45.2500 Du        
   9736 ****        61.0000  55.2500  45.5000 Du        
   9737 ****        61.0000  55.5000  45.0000 Du        
   9738 ****        61.0000  55.5000  45.2500 Du        
   9739 ****        61.0000  55.7500  45.0000 Du        
   9740 ****        61.0000  55.7500  45.2500 Du        
   9741 ****        61.0000  56.0000  45.0000 Du        
   9742 ****        61.0000  56.0000  45.2500 Du        
   9743 ****        61.2500  54.7500  45.0000 Du        
   9744 ****        61.2500  55.0000  45.0000 Du        
   9745 ****        61.2500  55.0000  45.2500 Du        
   9746 ****        61.2500  55.2500  45.0000 Du        
   9747 ****        61.2500  55.2500  45.2500 Du        
   9748 ****        61.2500  55.2500  45.5000 Du        
   9749 ****        61.2500  55.5000  45.0000 Du        
   9750 ****        61.2500  55.5000  45.2500 Du        
   9751 ****        61.2500  55.7500  45.0000 Du        
   9752 ****        61.2500  55.7500  45.2500 Du        
   9753 ****        61.2500  56.0000  45.0000 Du        
   9754 ****        61.2500  56.0000  45.2500 Du        
   9755 ****        61.2500  56.2500  45.0000 Du        
   9756 ****        61.5000  54.7500  45.0000 Du        
   9757 ****        61.5000  55.0000  45.0000 Du        
   9758 ****        61.5000  55.0000  45.2500 Du        
   9759 ****        61.5000  55.2500  45.0000 Du        
   9760 ****        61.5000  55.2500  45.2500 Du        
   9761 ****        61.5000  55.2500  45.5000 Du        
   9762 ****        61.5000  55.5000  45.0000 Du        
   9763 ****        61.5000  55.5000  45.2500 Du        
   9764 ****        61.5000  55.5000  45.5000 Du        
   9765 ****        61.5000  55.7500  45.0000 Du        
   9766 ****        61.5000  55.7500  45.2500 Du        
   9767 ****        61.5000  55.7500  45.5000 Du        
   9768 ****        61.5000  56.0000  45.0000 Du        
   9769 ****        61.5000  56.0000  45.2500 Du        
   9770 ****        61.5000  56.2500  45.0000 Du        
   9771 ****        61.5000  56.2500  45.2500 Du        
   9772 ****        61.7500  54.7500  45.0000 Du        
   9773 ****        61.7500  55.0000  45.0000 Du        
   9774 ****        61.7500  55.0000  45.2500 Du        
   9775 ****        61.7500  55.2500  45.0000 Du        
   9776 ****        61.7500  55.2500  45.2500 Du        
   9777 ****        61.7500  55.2500  45.5000 Du        
   9778 ****        61.7500  55.5000  45.0000 Du        
   9779 ****        61.7500  55.5000  45.2500 Du        
   9780 ****        61.7500  55.5000  45.5000 Du        
   9781 ****        61.7500  55.7500  45.0000 Du        
   9782 ****        61.7500  55.7500  45.2500 Du        
   9783 ****        61.7500  55.7500  45.5000 Du        
   9784 ****        61.7500  56.0000  45.0000 Du        
   9785 ****        61.7500  56.0000  45.2500 Du        
   9786 ****        61.7500  56.2500  45.0000 Du        
   9787 ****        61.7500  74.2500  52.7500 Du        
   9788 ****        61.7500  74.5000  52.7500 Du        
   9789 ****        61.7500  74.5000  53.0000 Du        
   9790 ****        61.7500  74.7500  52.7500 Du        
   9791 ****        61.7500  74.7500  53.0000 Du        
   9792 ****        62.0000  54.7500  45.0000 Du        
   9793 ****        62.0000  55.0000  45.0000 Du        
   9794 ****        62.0000  55.0000  45.2500 Du        
   9795 ****        62.0000  55.2500  45.0000 Du        
   9796 ****        62.0000  55.2500  45.2500 Du        
   9797 ****        62.0000  55.2500  45.5000 Du        
   9798 ****        62.0000  55.5000  45.0000 Du        
   9799 ****        62.0000  55.5000  45.2500 Du        
   9800 ****        62.0000  55.5000  45.5000 Du        
   9801 ****        62.0000  55.7500  45.0000 Du        
   9802 ****        62.0000  55.7500  45.2500 Du        
   9803 ****        62.0000  56.0000  45.0000 Du        
   9804 ****        62.0000  74.0000  52.7500 Du        
   9805 ****        62.0000  74.0000  53.0000 Du        
   9806 ****        62.0000  74.2500  52.5000 Du        
   9807 ****        62.0000  74.2500  52.7500 Du        
   9808 ****        62.0000  74.2500  53.0000 Du        
   9809 ****        62.0000  74.5000  52.5000 Du        
   9810 ****        62.0000  74.5000  52.7500 Du        
   9811 ****        62.0000  74.5000  53.0000 Du        
   9812 ****        62.0000  74.5000  53.2500 Du        
   9813 ****        62.0000  74.7500  52.5000 Du        
   9814 ****        62.0000  74.7500  52.7500 Du        
   9815 ****        62.0000  74.7500  53.0000 Du        
   9816 ****        62.0000  74.7500  53.2500 Du        
   9817 ****        62.0000  75.0000  52.5000 Du        
   9818 ****        62.0000  75.0000  52.7500 Du        
   9819 ****        62.0000  75.0000  53.0000 Du        
   9820 ****        62.0000  75.0000  53.2500 Du        
   9821 ****        62.0000  75.2500  52.5000 Du        
   9822 ****        62.0000  75.2500  52.7500 Du        
   9823 ****        62.0000  75.2500  53.0000 Du        
   9824 ****        62.0000  75.5000  52.5000 Du        
   9825 ****        62.0000  75.5000  52.7500 Du        
   9826 ****        62.2500  55.0000  45.0000 Du        
   9827 ****        62.2500  55.0000  45.2500 Du        
   9828 ****        62.2500  55.2500  45.0000 Du        
   9829 ****        62.2500  55.2500  45.2500 Du        
   9830 ****        62.2500  55.5000  45.0000 Du        
   9831 ****        62.2500  55.5000  45.2500 Du        
   9832 ****        62.2500  55.7500  45.0000 Du        
   9833 ****        62.2500  73.7500  52.5000 Du        
   9834 ****        62.2500  73.7500  52.7500 Du        
   9835 ****        62.2500  74.0000  52.5000 Du        
   9836 ****        62.2500  74.0000  52.7500 Du        
   9837 ****        62.2500  74.0000  53.0000 Du        
   9838 ****        62.2500  74.2500  52.5000 Du        
   9839 ****        62.2500  74.2500  52.7500 Du        
   9840 ****        62.2500  74.2500  53.0000 Du        
   9841 ****        62.2500  74.5000  52.5000 Du        
   9842 ****        62.2500  74.5000  52.7500 Du        
   9843 ****        62.2500  74.5000  53.0000 Du        
   9844 ****        62.2500  74.7500  52.5000 Du        
   9845 ****        62.2500  74.7500  52.7500 Du        
   9846 ****        62.2500  74.7500  53.0000 Du        
   9847 ****        62.2500  74.7500  53.2500 Du        
   9848 ****        62.2500  75.0000  52.2500 Du        
   9849 ****        62.2500  75.0000  52.5000 Du        
   9850 ****        62.2500  75.0000  52.7500 Du        
   9851 ****        62.2500  75.0000  53.0000 Du        
   9852 ****        62.2500  75.0000  53.2500 Du        
   9853 ****        62.2500  75.2500  52.2500 Du        
   9854 ****        62.2500  75.2500  52.5000 Du        
   9855 ****        62.2500  75.2500  52.7500 Du        
   9856 ****        62.2500  75.2500  53.0000 Du        
   9857 ****        62.2500  75.2500  53.2500 Du        
   9858 ****        62.2500  75.5000  52.2500 Du        
   9859 ****        62.2500  75.5000  52.5000 Du        
   9860 ****        62.2500  75.5000  52.7500 Du        
   9861 ****        62.2500  75.5000  53.0000 Du        
   9862 ****        62.2500  75.5000  53.2500 Du        
   9863 ****        62.2500  75.7500  52.2500 Du        
   9864 ****        62.2500  75.7500  52.5000 Du        
   9865 ****        62.2500  75.7500  52.7500 Du        
   9866 ****        62.2500  75.7500  53.0000 Du        
   9867 ****        62.2500  76.0000  52.2500 Du        
   9868 ****        62.2500  76.0000  52.5000 Du        
   9869 ****        62.2500  76.0000  52.7500 Du        
   9870 ****        62.5000  55.0000  45.0000 Du        
   9871 ****        62.5000  55.2500  45.0000 Du        
   9872 ****        62.5000  55.2500  45.2500 Du        
   9873 ****        62.5000  55.5000  45.0000 Du        
   9874 ****        62.5000  73.5000  52.5000 Du        
   9875 ****        62.5000  73.7500  52.2500 Du        
   9876 ****        62.5000  73.7500  52.5000 Du        
   9877 ****        62.5000  73.7500  52.7500 Du        
   9878 ****        62.5000  74.0000  52.2500 Du        
   9879 ****        62.5000  74.0000  52.5000 Du        
   9880 ****        62.5000  74.0000  52.7500 Du        
   9881 ****        62.5000  74.0000  53.0000 Du        
   9882 ****        62.5000  74.2500  52.2500 Du        
   9883 ****        62.5000  74.2500  52.5000 Du        
   9884 ****        62.5000  74.2500  52.7500 Du        
   9885 ****        62.5000  74.2500  53.0000 Du        
   9886 ****        62.5000  74.5000  52.2500 Du        
   9887 ****        62.5000  74.5000  52.5000 Du        
   9888 ****        62.5000  74.5000  52.7500 Du        
   9889 ****        62.5000  74.5000  53.0000 Du        
   9890 ****        62.5000  74.7500  52.2500 Du        
   9891 ****        62.5000  74.7500  52.5000 Du        
   9892 ****        62.5000  74.7500  52.7500 Du        
   9893 ****        62.5000  74.7500  53.0000 Du        
   9894 ****        62.5000  74.7500  53.2500 Du        
   9895 ****        62.5000  75.0000  52.2500 Du        
   9896 ****        62.5000  75.0000  52.5000 Du        
   9897 ****        62.5000  75.0000  52.7500 Du        
   9898 ****        62.5000  75.0000  53.0000 Du        
   9899 ****        62.5000  75.0000  53.2500 Du        
   9900 ****        62.5000  75.2500  52.2500 Du        
   9901 ****        62.5000  75.2500  52.5000 Du        
   9902 ****        62.5000  75.2500  52.7500 Du        
   9903 ****        62.5000  75.2500  53.0000 Du        
   9904 ****        62.5000  75.2500  53.2500 Du        
   9905 ****        62.5000  75.5000  52.0000 Du        
   9906 ****        62.5000  75.5000  52.2500 Du        
   9907 ****        62.5000  75.5000  52.5000 Du        
   9908 ****        62.5000  75.5000  52.7500 Du        
   9909 ****        62.5000  75.5000  53.0000 Du        
   9910 ****        62.5000  75.5000  53.2500 Du        
   9911 ****        62.5000  75.7500  52.0000 Du        
   9912 ****        62.5000  75.7500  52.2500 Du        
   9913 ****        62.5000  75.7500  52.5000 Du        
   9914 ****        62.5000  75.7500  52.7500 Du        
   9915 ****        62.5000  75.7500  53.0000 Du        
   9916 ****        62.5000  75.7500  53.2500 Du        
   9917 ****        62.5000  76.0000  52.2500 Du        
   9918 ****        62.5000  76.0000  52.5000 Du        
   9919 ****        62.5000  76.0000  52.7500 Du        
   9920 ****        62.5000  76.0000  53.0000 Du        
   9921 ****        62.5000  76.0000  53.2500 Du        
   9922 ****        62.5000  76.2500  52.5000 Du        
   9923 ****        62.5000  76.2500  52.7500 Du        
   9924 ****        62.5000  76.2500  53.0000 Du        
   9925 ****        62.7500  73.2500  52.2500 Du        
   9926 ****        62.7500  73.2500  52.5000 Du        
   9927 ****        62.7500  73.5000  52.2500 Du        
   9928 ****        62.7500  73.5000  52.5000 Du        
   9929 ****        62.7500  73.5000  52.7500 Du        
   9930 ****        62.7500  73.7500  52.2500 Du        
   9931 ****        62.7500  73.7500  52.5000 Du        
   9932 ****        62.7500  73.7500  52.7500 Du        
   9933 ****        62.7500  74.0000  52.2500 Du        
   9934 ****        62.7500  74.0000  52.5000 Du        
   9935 ****        62.7500  74.0000  52.7500 Du        
   9936 ****        62.7500  74.0000  53.0000 Du        
   9937 ****        62.7500  74.2500  52.2500 Du        
   9938 ****        62.7500  74.2500  52.5000 Du        
   9939 ****        62.7500  74.2500  52.7500 Du        
   9940 ****        62.7500  74.2500  53.0000 Du        
   9941 ****        62.7500  74.5000  52.2500 Du        
   9942 ****        62.7500  74.5000  52.5000 Du        
   9943 ****        62.7500  74.5000  52.7500 Du        
   9944 ****        62.7500  74.5000  53.0000 Du        
   9945 ****        62.7500  74.7500  52.0000 Du        
   9946 ****        62.7500  74.7500  52.2500 Du        
   9947 ****        62.7500  74.7500  52.5000 Du        
   9948 ****        62.7500  74.7500  52.7500 Du        
   9949 ****        62.7500  74.7500  53.0000 Du        
   9950 ****        62.7500  75.0000  52.0000 Du        
   9951 ****        62.7500  75.0000  52.2500 Du        
   9952 ****        62.7500  75.0000  52.5000 Du        
   9953 ****        62.7500  75.0000  52.7500 Du        
   9954 ****        62.7500  75.0000  53.0000 Du        
   9955 ****        62.7500  75.0000  53.2500 Du        
   9956 ****        62.7500  75.2500  52.0000 Du        
   9957 ****        62.7500  75.2500  52.2500 Du        
   9958 ****        62.7500  75.2500  52.5000 Du        
   9959 ****        62.7500  75.2500  52.7500 Du        
   9960 ****        62.7500  75.2500  53.0000 Du        
   9961 ****        62.7500  75.2500  53.2500 Du        
   9962 ****        62.7500  75.5000  52.0000 Du        
   9963 ****        62.7500  75.5000  52.2500 Du        
   9964 ****        62.7500  75.5000  52.5000 Du        
   9965 ****        62.7500  75.5000  52.7500 Du        
   9966 ****        62.7500  75.5000  53.0000 Du        
   9967 ****        62.7500  75.5000  53.2500 Du        
   9968 ****        62.7500  75.7500  52.0000 Du        
   9969 ****        62.7500  75.7500  52.2500 Du        
   9970 ****        62.7500  75.7500  52.5000 Du        
   9971 ****        62.7500  75.7500  52.7500 Du        
   9972 ****        62.7500  75.7500  53.0000 Du        
   9973 ****        62.7500  75.7500  53.2500 Du        
   9974 ****        62.7500  75.7500  53.5000 Du        
   9975 ****        62.7500  76.0000  52.0000 Du        
   9976 ****        62.7500  76.0000  52.2500 Du        
   9977 ****        62.7500  76.0000  52.5000 Du        
   9978 ****        62.7500  76.0000  52.7500 Du        
   9979 ****        62.7500  76.0000  53.0000 Du        
   9980 ****        62.7500  76.0000  53.2500 Du        
   9981 ****        62.7500  76.0000  53.5000 Du        
   9982 ****        62.7500  76.2500  52.2500 Du        
   9983 ****        62.7500  76.2500  52.5000 Du        
   9984 ****        62.7500  76.2500  52.7500 Du        
   9985 ****        62.7500  76.2500  53.0000 Du        
   9986 ****        62.7500  76.2500  53.2500 Du        
   9987 ****        62.7500  76.2500  53.5000 Du        
   9988 ****        62.7500  76.5000  52.5000 Du        
   9989 ****        62.7500  76.5000  52.7500 Du        
   9990 ****        62.7500  76.5000  53.0000 Du        
   9991 ****        62.7500  76.5000  53.2500 Du        
   9992 ****        62.7500  76.7500  52.7500 Du        
   9993 ****        62.7500  76.7500  53.0000 Du        
   9994 ****        62.7500  76.7500  53.2500 Du        
   9995 ****        63.0000  73.0000  52.2500 Du        
   9996 ****        63.0000  73.2500  52.0000 Du        
   9997 ****        63.0000  73.2500  52.2500 Du        
   9998 ****        63.0000  73.2500  52.5000 Du        
   9999 ****        63.0000  73.5000  52.0000 Du        
  10000 ****        63.0000  73.5000  52.2500 Du        
  10001 ****        63.0000  73.5000  52.5000 Du        
  10002 ****        63.0000  73.5000  52.7500 Du        
  10003 ****        63.0000  73.7500  52.0000 Du        
  10004 ****        63.0000  73.7500  52.2500 Du        
  10005 ****        63.0000  73.7500  52.5000 Du        
  10006 ****        63.0000  73.7500  52.7500 Du        
  10007 ****        63.0000  74.0000  52.0000 Du        
  10008 ****        63.0000  74.0000  52.2500 Du        
  10009 ****        63.0000  74.0000  52.5000 Du        
  10010 ****        63.0000  74.0000  52.7500 Du        
  10011 ****        63.0000  74.2500  52.0000 Du        
  10012 ****        63.0000  74.2500  52.2500 Du        
  10013 ****        63.0000  74.2500  52.5000 Du        
  10014 ****        63.0000  74.2500  52.7500 Du        
  10015 ****        63.0000  74.2500  53.0000 Du        
  10016 ****        63.0000  74.5000  52.0000 Du        
  10017 ****        63.0000  74.5000  52.2500 Du        
  10018 ****        63.0000  74.5000  52.5000 Du        
  10019 ****        63.0000  74.5000  52.7500 Du        
  10020 ****        63.0000  74.5000  53.0000 Du        
  10021 ****        63.0000  74.7500  52.0000 Du        
  10022 ****        63.0000  74.7500  52.2500 Du        
  10023 ****        63.0000  74.7500  52.5000 Du        
  10024 ****        63.0000  74.7500  52.7500 Du        
  10025 ****        63.0000  74.7500  53.0000 Du        
  10026 ****        63.0000  75.0000  52.0000 Du        
  10027 ****        63.0000  75.0000  52.2500 Du        
  10028 ****        63.0000  75.0000  52.5000 Du        
  10029 ****        63.0000  75.0000  52.7500 Du        
  10030 ****        63.0000  75.0000  53.0000 Du        
  10031 ****        63.0000  75.0000  53.2500 Du        
  10032 ****        63.0000  75.2500  52.0000 Du        
  10033 ****        63.0000  75.2500  52.2500 Du        
  10034 ****        63.0000  75.2500  52.5000 Du        
  10035 ****        63.0000  75.2500  52.7500 Du        
  10036 ****        63.0000  75.2500  53.0000 Du        
  10037 ****        63.0000  75.2500  53.2500 Du        
  10038 ****        63.0000  75.5000  52.0000 Du        
  10039 ****        63.0000  75.5000  52.2500 Du        
  10040 ****        63.0000  75.5000  52.5000 Du        
  10041 ****        63.0000  75.5000  52.7500 Du        
  10042 ****        63.0000  75.5000  53.0000 Du        
  10043 ****        63.0000  75.5000  53.2500 Du        
  10044 ****        63.0000  75.7500  52.0000 Du        
  10045 ****        63.0000  75.7500  52.2500 Du        
  10046 ****        63.0000  75.7500  52.5000 Du        
  10047 ****        63.0000  75.7500  52.7500 Du        
  10048 ****        63.0000  75.7500  53.0000 Du        
  10049 ****        63.0000  75.7500  53.2500 Du        
  10050 ****        63.0000  75.7500  53.5000 Du        
  10051 ****        63.0000  76.0000  52.0000 Du        
  10052 ****        63.0000  76.0000  52.2500 Du        
  10053 ****        63.0000  76.0000  52.5000 Du        
  10054 ****        63.0000  76.0000  52.7500 Du        
  10055 ****        63.0000  76.0000  53.0000 Du        
  10056 ****        63.0000  76.0000  53.2500 Du        
  10057 ****        63.0000  76.0000  53.5000 Du        
  10058 ****        63.0000  76.2500  52.0000 Du        
  10059 ****        63.0000  76.2500  52.2500 Du        
  10060 ****        63.0000  76.2500  52.5000 Du        
  10061 ****        63.0000  76.2500  52.7500 Du        
  10062 ****        63.0000  76.2500  53.0000 Du        
  10063 ****        63.0000  76.2500  53.2500 Du        
  10064 ****        63.0000  76.2500  53.5000 Du        
  10065 ****        63.0000  76.2500  53.7500 Du        
  10066 ****        63.0000  76.5000  52.2500 Du        
  10067 ****        63.0000  76.5000  52.5000 Du        
  10068 ****        63.0000  76.5000  52.7500 Du        
  10069 ****        63.0000  76.5000  53.0000 Du        
  10070 ****        63.0000  76.5000  53.2500 Du        
  10071 ****        63.0000  76.5000  53.5000 Du        
  10072 ****        63.0000  76.5000  53.7500 Du        
  10073 ****        63.0000  76.7500  52.7500 Du        
  10074 ****        63.0000  76.7500  53.0000 Du        
  10075 ****        63.0000  76.7500  53.2500 Du        
  10076 ****        63.0000  76.7500  53.5000 Du        
  10077 ****        63.0000  76.7500  53.7500 Du        
  10078 ****        63.0000  77.0000  53.0000 Du        
  10079 ****        63.0000  77.0000  53.2500 Du        
  10080 ****        63.0000  77.0000  53.5000 Du        
  10081 ****        63.0000  77.0000  53.7500 Du        
  10082 ****        63.0000  77.2500  53.2500 Du        
  10083 ****        63.0000  77.2500  53.5000 Du        
  10084 ****        63.2500  72.7500  52.0000 Du        
  10085 ****        63.2500  72.7500  52.2500 Du        
  10086 ****        63.2500  73.0000  52.0000 Du        
  10087 ****        63.2500  73.0000  52.2500 Du        
  10088 ****        63.2500  73.0000  52.5000 Du        
  10089 ****        63.2500  73.2500  52.0000 Du        
  10090 ****        63.2500  73.2500  52.2500 Du        
  10091 ****        63.2500  73.2500  52.5000 Du        
  10092 ****        63.2500  73.2500  52.7500 Du        
  10093 ****        63.2500  73.5000  51.7500 Du        
  10094 ****        63.2500  73.5000  52.0000 Du        
  10095 ****        63.2500  73.5000  52.2500 Du        
  10096 ****        63.2500  73.5000  52.5000 Du        
  10097 ****        63.2500  73.5000  52.7500 Du        
  10098 ****        63.2500  73.7500  51.7500 Du        
  10099 ****        63.2500  73.7500  52.0000 Du        
  10100 ****        63.2500  73.7500  52.2500 Du        
  10101 ****        63.2500  73.7500  52.5000 Du        
  10102 ****        63.2500  73.7500  52.7500 Du        
  10103 ****        63.2500  74.0000  51.7500 Du        
  10104 ****        63.2500  74.0000  52.0000 Du        
  10105 ****        63.2500  74.0000  52.2500 Du        
  10106 ****        63.2500  74.0000  52.5000 Du        
  10107 ****        63.2500  74.0000  52.7500 Du        
  10108 ****        63.2500  74.2500  51.7500 Du        
  10109 ****        63.2500  74.2500  52.0000 Du        
  10110 ****        63.2500  74.2500  52.2500 Du        
  10111 ****        63.2500  74.2500  52.5000 Du        
  10112 ****        63.2500  74.2500  52.7500 Du        
  10113 ****        63.2500  74.5000  51.7500 Du        
  10114 ****        63.2500  74.5000  52.0000 Du        
  10115 ****        63.2500  74.5000  52.2500 Du        
  10116 ****        63.2500  74.5000  52.5000 Du        
  10117 ****        63.2500  74.5000  52.7500 Du        
  10118 ****        63.2500  74.5000  53.0000 Du        
  10119 ****        63.2500  74.7500  51.7500 Du        
  10120 ****        63.2500  74.7500  52.0000 Du        
  10121 ****        63.2500  74.7500  52.2500 Du        
  10122 ****        63.2500  74.7500  52.5000 Du        
  10123 ****        63.2500  74.7500  52.7500 Du        
  10124 ****        63.2500  74.7500  53.0000 Du        
  10125 ****        63.2500  75.0000  51.7500 Du        
  10126 ****        63.2500  75.0000  52.0000 Du        
  10127 ****        63.2500  75.0000  52.2500 Du        
  10128 ****        63.2500  75.0000  52.5000 Du        
  10129 ****        63.2500  75.0000  52.7500 Du        
  10130 ****        63.2500  75.0000  53.0000 Du        
  10131 ****        63.2500  75.2500  51.7500 Du        
  10132 ****        63.2500  75.2500  52.0000 Du        
  10133 ****        63.2500  75.2500  52.2500 Du        
  10134 ****        63.2500  75.2500  52.5000 Du        
  10135 ****        63.2500  75.2500  52.7500 Du        
  10136 ****        63.2500  75.2500  53.0000 Du        
  10137 ****        63.2500  75.2500  53.2500 Du        
  10138 ****        63.2500  75.5000  51.7500 Du        
  10139 ****        63.2500  75.5000  52.0000 Du        
  10140 ****        63.2500  75.5000  52.2500 Du        
  10141 ****        63.2500  75.5000  52.5000 Du        
  10142 ****        63.2500  75.5000  52.7500 Du        
  10143 ****        63.2500  75.5000  53.0000 Du        
  10144 ****        63.2500  75.5000  53.2500 Du        
  10145 ****        63.2500  75.7500  51.7500 Du        
  10146 ****        63.2500  75.7500  52.0000 Du        
  10147 ****        63.2500  75.7500  52.2500 Du        
  10148 ****        63.2500  75.7500  52.5000 Du        
  10149 ****        63.2500  75.7500  52.7500 Du        
  10150 ****        63.2500  75.7500  53.0000 Du        
  10151 ****        63.2500  75.7500  53.2500 Du        
  10152 ****        63.2500  75.7500  53.5000 Du        
  10153 ****        63.2500  76.0000  51.7500 Du        
  10154 ****        63.2500  76.0000  52.0000 Du        
  10155 ****        63.2500  76.0000  52.2500 Du        
  10156 ****        63.2500  76.0000  52.5000 Du        
  10157 ****        63.2500  76.0000  52.7500 Du        
  10158 ****        63.2500  76.0000  53.0000 Du        
  10159 ****        63.2500  76.0000  53.2500 Du        
  10160 ****        63.2500  76.0000  53.5000 Du        
  10161 ****        63.2500  76.0000  53.7500 Du        
  10162 ****        63.2500  76.2500  52.0000 Du        
  10163 ****        63.2500  76.2500  52.2500 Du        
  10164 ****        63.2500  76.2500  52.5000 Du        
  10165 ****        63.2500  76.2500  52.7500 Du        
  10166 ****        63.2500  76.2500  53.0000 Du        
  10167 ****        63.2500  76.2500  53.2500 Du        
  10168 ****        63.2500  76.2500  53.5000 Du        
  10169 ****        63.2500  76.2500  53.7500 Du        
  10170 ****        63.2500  76.5000  52.2500 Du        
  10171 ****        63.2500  76.5000  52.5000 Du        
  10172 ****        63.2500  76.5000  52.7500 Du        
  10173 ****        63.2500  76.5000  53.0000 Du        
  10174 ****        63.2500  76.5000  53.2500 Du        
  10175 ****        63.2500  76.5000  53.5000 Du        
  10176 ****        63.2500  76.5000  53.7500 Du        
  10177 ****        63.2500  76.5000  54.0000 Du        
  10178 ****        63.2500  76.7500  52.5000 Du        
  10179 ****        63.2500  76.7500  52.7500 Du        
  10180 ****        63.2500  76.7500  53.0000 Du        
  10181 ****        63.2500  76.7500  53.2500 Du        
  10182 ****        63.2500  76.7500  53.5000 Du        
  10183 ****        63.2500  76.7500  53.7500 Du        
  10184 ****        63.2500  76.7500  54.0000 Du        
  10185 ****        63.2500  76.7500  54.2500 Du        
  10186 ****        63.2500  77.0000  52.7500 Du        
  10187 ****        63.2500  77.0000  53.0000 Du        
  10188 ****        63.2500  77.0000  53.2500 Du        
  10189 ****        63.2500  77.0000  53.5000 Du        
  10190 ****        63.2500  77.0000  53.7500 Du        
  10191 ****        63.2500  77.0000  54.0000 Du        
  10192 ****        63.2500  77.0000  54.2500 Du        
  10193 ****        63.2500  77.2500  53.0000 Du        
  10194 ****        63.2500  77.2500  53.2500 Du        
  10195 ****        63.2500  77.2500  53.5000 Du        
  10196 ****        63.2500  77.2500  53.7500 Du        
  10197 ****        63.2500  77.2500  54.0000 Du        
  10198 ****        63.2500  77.2500  54.2500 Du        
  10199 ****        63.2500  77.5000  53.2500 Du        
  10200 ****        63.2500  77.5000  53.5000 Du        
  10201 ****        63.2500  77.5000  53.7500 Du        
  10202 ****        63.2500  77.5000  54.0000 Du        
  10203 ****        63.2500  77.7500  53.5000 Du        
  10204 ****        63.2500  77.7500  53.7500 Du        
  10205 ****        63.2500  77.7500  54.0000 Du        
  10206 ****        63.2500  78.0000  53.7500 Du        
  10207 ****        63.2500  78.0000  54.0000 Du        
  10208 ****        63.2500  78.2500  54.0000 Du        
  10209 ****        63.5000  72.5000  52.0000 Du        
  10210 ****        63.5000  72.5000  52.2500 Du        
  10211 ****        63.5000  72.7500  51.7500 Du        
  10212 ****        63.5000  72.7500  52.0000 Du        
  10213 ****        63.5000  72.7500  52.2500 Du        
  10214 ****        63.5000  72.7500  52.5000 Du        
  10215 ****        63.5000  73.0000  51.7500 Du        
  10216 ****        63.5000  73.0000  52.0000 Du        
  10217 ****        63.5000  73.0000  52.2500 Du        
  10218 ****        63.5000  73.0000  52.5000 Du        
  10219 ****        63.5000  73.2500  51.7500 Du        
  10220 ****        63.5000  73.2500  52.0000 Du        
  10221 ****        63.5000  73.2500  52.2500 Du        
  10222 ****        63.5000  73.2500  52.5000 Du        
  10223 ****        63.5000  73.2500  52.7500 Du        
  10224 ****        63.5000  73.5000  51.7500 Du        
  10225 ****        63.5000  73.5000  52.0000 Du        
  10226 ****        63.5000  73.5000  52.2500 Du        
  10227 ****        63.5000  73.5000  52.5000 Du        
  10228 ****        63.5000  73.5000  52.7500 Du        
  10229 ****        63.5000  73.7500  51.7500 Du        
  10230 ****        63.5000  73.7500  52.0000 Du        
  10231 ****        63.5000  73.7500  52.2500 Du        
  10232 ****        63.5000  73.7500  52.5000 Du        
  10233 ****        63.5000  73.7500  52.7500 Du        
  10234 ****        63.5000  74.0000  51.5000 Du        
  10235 ****        63.5000  74.0000  51.7500 Du        
  10236 ****        63.5000  74.0000  52.0000 Du        
  10237 ****        63.5000  74.0000  52.2500 Du        
  10238 ****        63.5000  74.0000  52.5000 Du        
  10239 ****        63.5000  74.0000  52.7500 Du        
  10240 ****        63.5000  74.2500  51.5000 Du        
  10241 ****        63.5000  74.2500  51.7500 Du        
  10242 ****        63.5000  74.2500  52.0000 Du        
  10243 ****        63.5000  74.2500  52.2500 Du        
  10244 ****        63.5000  74.2500  52.5000 Du        
  10245 ****        63.5000  74.2500  52.7500 Du        
  10246 ****        63.5000  74.5000  51.7500 Du        
  10247 ****        63.5000  74.5000  52.0000 Du        
  10248 ****        63.5000  74.5000  52.2500 Du        
  10249 ****        63.5000  74.5000  52.5000 Du        
  10250 ****        63.5000  74.5000  52.7500 Du        
  10251 ****        63.5000  74.7500  51.7500 Du        
  10252 ****        63.5000  74.7500  52.0000 Du        
  10253 ****        63.5000  74.7500  52.2500 Du        
  10254 ****        63.5000  74.7500  52.5000 Du        
  10255 ****        63.5000  74.7500  52.7500 Du        
  10256 ****        63.5000  74.7500  53.0000 Du        
  10257 ****        63.5000  75.0000  51.7500 Du        
  10258 ****        63.5000  75.0000  52.0000 Du        
  10259 ****        63.5000  75.0000  52.2500 Du        
  10260 ****        63.5000  75.0000  52.5000 Du        
  10261 ****        63.5000  75.0000  52.7500 Du        
  10262 ****        63.5000  75.0000  53.0000 Du        
  10263 ****        63.5000  75.2500  51.7500 Du        
  10264 ****        63.5000  75.2500  52.0000 Du        
  10265 ****        63.5000  75.2500  52.2500 Du        
  10266 ****        63.5000  75.2500  52.5000 Du        
  10267 ****        63.5000  75.2500  52.7500 Du        
  10268 ****        63.5000  75.2500  53.0000 Du        
  10269 ****        63.5000  75.5000  51.7500 Du        
  10270 ****        63.5000  75.5000  52.0000 Du        
  10271 ****        63.5000  75.5000  52.2500 Du        
  10272 ****        63.5000  75.5000  52.5000 Du        
  10273 ****        63.5000  75.5000  52.7500 Du        
  10274 ****        63.5000  75.5000  53.0000 Du        
  10275 ****        63.5000  75.5000  53.2500 Du        
  10276 ****        63.5000  75.7500  51.7500 Du        
  10277 ****        63.5000  75.7500  52.0000 Du        
  10278 ****        63.5000  75.7500  52.2500 Du        
  10279 ****        63.5000  75.7500  52.5000 Du        
  10280 ****        63.5000  75.7500  52.7500 Du        
  10281 ****        63.5000  75.7500  53.0000 Du        
  10282 ****        63.5000  75.7500  53.2500 Du        
  10283 ****        63.5000  75.7500  53.5000 Du        
  10284 ****        63.5000  76.0000  51.7500 Du        
  10285 ****        63.5000  76.0000  52.0000 Du        
  10286 ****        63.5000  76.0000  52.2500 Du        
  10287 ****        63.5000  76.0000  52.5000 Du        
  10288 ****        63.5000  76.0000  52.7500 Du        
  10289 ****        63.5000  76.0000  53.0000 Du        
  10290 ****        63.5000  76.0000  53.2500 Du        
  10291 ****        63.5000  76.0000  53.5000 Du        
  10292 ****        63.5000  76.0000  53.7500 Du        
  10293 ****        63.5000  76.2500  51.7500 Du        
  10294 ****        63.5000  76.2500  52.0000 Du        
  10295 ****        63.5000  76.2500  52.2500 Du        
  10296 ****        63.5000  76.2500  52.5000 Du        
  10297 ****        63.5000  76.2500  52.7500 Du        
  10298 ****        63.5000  76.2500  53.0000 Du        
  10299 ****        63.5000  76.2500  53.2500 Du        
  10300 ****        63.5000  76.2500  53.5000 Du        
  10301 ****        63.5000  76.2500  53.7500 Du        
  10302 ****        63.5000  76.2500  54.0000 Du        
  10303 ****        63.5000  76.5000  52.0000 Du        
  10304 ****        63.5000  76.5000  52.2500 Du        
  10305 ****        63.5000  76.5000  52.5000 Du        
  10306 ****        63.5000  76.5000  52.7500 Du        
  10307 ****        63.5000  76.5000  53.0000 Du        
  10308 ****        63.5000  76.5000  53.2500 Du        
  10309 ****        63.5000  76.5000  53.5000 Du        
  10310 ****        63.5000  76.5000  53.7500 Du        
  10311 ****        63.5000  76.5000  54.0000 Du        
  10312 ****        63.5000  76.5000  54.2500 Du        
  10313 ****        63.5000  76.7500  52.5000 Du        
  10314 ****        63.5000  76.7500  52.7500 Du        
  10315 ****        63.5000  76.7500  53.0000 Du        
  10316 ****        63.5000  76.7500  53.2500 Du        
  10317 ****        63.5000  76.7500  53.5000 Du        
  10318 ****        63.5000  76.7500  53.7500 Du        
  10319 ****        63.5000  76.7500  54.0000 Du        
  10320 ****        63.5000  76.7500  54.2500 Du        
  10321 ****        63.5000  76.7500  54.5000 Du        
  10322 ****        63.5000  77.0000  52.7500 Du        
  10323 ****        63.5000  77.0000  53.0000 Du        
  10324 ****        63.5000  77.0000  53.2500 Du        
  10325 ****        63.5000  77.0000  53.5000 Du        
  10326 ****        63.5000  77.0000  53.7500 Du        
  10327 ****        63.5000  77.0000  54.0000 Du        
  10328 ****        63.5000  77.0000  54.2500 Du        
  10329 ****        63.5000  77.0000  54.5000 Du        
  10330 ****        63.5000  77.0000  54.7500 Du        
  10331 ****        63.5000  77.2500  53.0000 Du        
  10332 ****        63.5000  77.2500  53.2500 Du        
  10333 ****        63.5000  77.2500  53.5000 Du        
  10334 ****        63.5000  77.2500  53.7500 Du        
  10335 ****        63.5000  77.2500  54.0000 Du        
  10336 ****        63.5000  77.2500  54.2500 Du        
  10337 ****        63.5000  77.2500  54.5000 Du        
  10338 ****        63.5000  77.2500  54.7500 Du        
  10339 ****        63.5000  77.2500  55.0000 Du        
  10340 ****        63.5000  77.5000  53.2500 Du        
  10341 ****        63.5000  77.5000  53.5000 Du        
  10342 ****        63.5000  77.5000  53.7500 Du        
  10343 ****        63.5000  77.5000  54.0000 Du        
  10344 ****        63.5000  77.5000  54.2500 Du        
  10345 ****        63.5000  77.5000  54.5000 Du        
  10346 ****        63.5000  77.5000  54.7500 Du        
  10347 ****        63.5000  77.5000  55.0000 Du        
  10348 ****        63.5000  77.5000  55.2500 Du        
  10349 ****        63.5000  77.7500  53.5000 Du        
  10350 ****        63.5000  77.7500  53.7500 Du        
  10351 ****        63.5000  77.7500  54.0000 Du        
  10352 ****        63.5000  77.7500  54.2500 Du        
  10353 ****        63.5000  77.7500  54.5000 Du        
  10354 ****        63.5000  77.7500  54.7500 Du        
  10355 ****        63.5000  77.7500  55.0000 Du        
  10356 ****        63.5000  77.7500  55.2500 Du        
  10357 ****        63.5000  78.0000  53.5000 Du        
  10358 ****        63.5000  78.0000  53.7500 Du        
  10359 ****        63.5000  78.0000  54.0000 Du        
  10360 ****        63.5000  78.0000  54.2500 Du        
  10361 ****        63.5000  78.0000  54.5000 Du        
  10362 ****        63.5000  78.0000  54.7500 Du        
  10363 ****        63.5000  78.0000  55.0000 Du        
  10364 ****        63.5000  78.2500  53.7500 Du        
  10365 ****        63.5000  78.2500  54.0000 Du        
  10366 ****        63.5000  78.2500  54.2500 Du        
  10367 ****        63.5000  78.2500  54.5000 Du        
  10368 ****        63.5000  78.2500  54.7500 Du        
  10369 ****        63.5000  78.5000  54.0000 Du        
  10370 ****        63.5000  78.5000  54.2500 Du        
  10371 ****        63.5000  78.5000  54.5000 Du        
  10372 ****        63.7500  49.0000  63.7500 Du        
  10373 ****        63.7500  49.2500  64.0000 Du        
  10374 ****        63.7500  49.2500  64.2500 Du        
  10375 ****        63.7500  72.2500  52.0000 Du        
  10376 ****        63.7500  72.2500  52.2500 Du        
  10377 ****        63.7500  72.5000  51.7500 Du        
  10378 ****        63.7500  72.5000  52.0000 Du        
  10379 ****        63.7500  72.5000  52.2500 Du        
  10380 ****        63.7500  72.5000  52.5000 Du        
  10381 ****        63.7500  72.7500  51.7500 Du        
  10382 ****        63.7500  72.7500  52.0000 Du        
  10383 ****        63.7500  72.7500  52.2500 Du        
  10384 ****        63.7500  72.7500  52.5000 Du        
  10385 ****        63.7500  73.0000  51.7500 Du        
  10386 ****        63.7500  73.0000  52.0000 Du        
  10387 ****        63.7500  73.0000  52.2500 Du        
  10388 ****        63.7500  73.0000  52.5000 Du        
  10389 ****        63.7500  73.2500  51.5000 Du        
  10390 ****        63.7500  73.2500  51.7500 Du        
  10391 ****        63.7500  73.2500  52.0000 Du        
  10392 ****        63.7500  73.2500  52.2500 Du        
  10393 ****        63.7500  73.2500  52.5000 Du        
  10394 ****        63.7500  73.5000  51.5000 Du        
  10395 ****        63.7500  73.5000  51.7500 Du        
  10396 ****        63.7500  73.5000  52.0000 Du        
  10397 ****        63.7500  73.5000  52.2500 Du        
  10398 ****        63.7500  73.5000  52.5000 Du        
  10399 ****        63.7500  73.7500  51.5000 Du        
  10400 ****        63.7500  73.7500  51.7500 Du        
  10401 ****        63.7500  73.7500  52.0000 Du        
  10402 ****        63.7500  73.7500  52.2500 Du        
  10403 ****        63.7500  73.7500  52.5000 Du        
  10404 ****        63.7500  74.0000  51.5000 Du        
  10405 ****        63.7500  74.0000  51.7500 Du        
  10406 ****        63.7500  74.0000  52.0000 Du        
  10407 ****        63.7500  74.0000  52.2500 Du        
  10408 ****        63.7500  74.0000  52.5000 Du        
  10409 ****        63.7500  74.2500  51.5000 Du        
  10410 ****        63.7500  74.2500  51.7500 Du        
  10411 ****        63.7500  74.2500  52.0000 Du        
  10412 ****        63.7500  74.2500  52.2500 Du        
  10413 ****        63.7500  74.2500  52.5000 Du        
  10414 ****        63.7500  74.5000  51.5000 Du        
  10415 ****        63.7500  74.5000  51.7500 Du        
  10416 ****        63.7500  74.5000  52.0000 Du        
  10417 ****        63.7500  74.5000  52.2500 Du        
  10418 ****        63.7500  74.5000  52.5000 Du        
  10419 ****        63.7500  74.5000  52.7500 Du        
  10420 ****        63.7500  74.7500  51.5000 Du        
  10421 ****        63.7500  74.7500  51.7500 Du        
  10422 ****        63.7500  74.7500  52.0000 Du        
  10423 ****        63.7500  74.7500  52.2500 Du        
  10424 ****        63.7500  74.7500  52.5000 Du        
  10425 ****        63.7500  74.7500  52.7500 Du        
  10426 ****        63.7500  75.0000  51.5000 Du        
  10427 ****        63.7500  75.0000  51.7500 Du        
  10428 ****        63.7500  75.0000  52.0000 Du        
  10429 ****        63.7500  75.0000  52.2500 Du        
  10430 ****        63.7500  75.0000  52.5000 Du        
  10431 ****        63.7500  75.0000  52.7500 Du        
  10432 ****        63.7500  75.0000  53.0000 Du        
  10433 ****        63.7500  75.2500  51.7500 Du        
  10434 ****        63.7500  75.2500  52.0000 Du        
  10435 ****        63.7500  75.2500  52.2500 Du        
  10436 ****        63.7500  75.2500  52.5000 Du        
  10437 ****        63.7500  75.2500  52.7500 Du        
  10438 ****        63.7500  75.2500  53.0000 Du        
  10439 ****        63.7500  75.5000  51.7500 Du        
  10440 ****        63.7500  75.5000  52.0000 Du        
  10441 ****        63.7500  75.5000  52.2500 Du        
  10442 ****        63.7500  75.5000  52.5000 Du        
  10443 ****        63.7500  75.5000  52.7500 Du        
  10444 ****        63.7500  75.5000  53.0000 Du        
  10445 ****        63.7500  75.5000  53.2500 Du        
  10446 ****        63.7500  75.7500  51.7500 Du        
  10447 ****        63.7500  75.7500  52.0000 Du        
  10448 ****        63.7500  75.7500  52.2500 Du        
  10449 ****        63.7500  75.7500  52.5000 Du        
  10450 ****        63.7500  75.7500  52.7500 Du        
  10451 ****        63.7500  75.7500  53.0000 Du        
  10452 ****        63.7500  75.7500  53.2500 Du        
  10453 ****        63.7500  75.7500  53.5000 Du        
  10454 ****        63.7500  76.0000  51.7500 Du        
  10455 ****        63.7500  76.0000  52.0000 Du        
  10456 ****        63.7500  76.0000  52.2500 Du        
  10457 ****        63.7500  76.0000  52.5000 Du        
  10458 ****        63.7500  76.0000  52.7500 Du        
  10459 ****        63.7500  76.0000  53.0000 Du        
  10460 ****        63.7500  76.0000  53.2500 Du        
  10461 ****        63.7500  76.0000  53.5000 Du        
  10462 ****        63.7500  76.0000  53.7500 Du        
  10463 ****        63.7500  76.2500  51.7500 Du        
  10464 ****        63.7500  76.2500  52.0000 Du        
  10465 ****        63.7500  76.2500  52.2500 Du        
  10466 ****        63.7500  76.2500  52.5000 Du        
  10467 ****        63.7500  76.2500  52.7500 Du        
  10468 ****        63.7500  76.2500  53.0000 Du        
  10469 ****        63.7500  76.2500  53.2500 Du        
  10470 ****        63.7500  76.2500  53.5000 Du        
  10471 ****        63.7500  76.2500  53.7500 Du        
  10472 ****        63.7500  76.2500  54.0000 Du        
  10473 ****        63.7500  76.5000  52.0000 Du        
  10474 ****        63.7500  76.5000  52.2500 Du        
  10475 ****        63.7500  76.5000  52.5000 Du        
  10476 ****        63.7500  76.5000  52.7500 Du        
  10477 ****        63.7500  76.5000  53.0000 Du        
  10478 ****        63.7500  76.5000  53.2500 Du        
  10479 ****        63.7500  76.5000  53.5000 Du        
  10480 ****        63.7500  76.5000  53.7500 Du        
  10481 ****        63.7500  76.5000  54.0000 Du        
  10482 ****        63.7500  76.5000  54.2500 Du        
  10483 ****        63.7500  76.7500  52.2500 Du        
  10484 ****        63.7500  76.7500  52.5000 Du        
  10485 ****        63.7500  76.7500  52.7500 Du        
  10486 ****        63.7500  76.7500  53.0000 Du        
  10487 ****        63.7500  76.7500  53.2500 Du        
  10488 ****        63.7500  76.7500  53.5000 Du        
  10489 ****        63.7500  76.7500  53.7500 Du        
  10490 ****        63.7500  76.7500  54.0000 Du        
  10491 ****        63.7500  76.7500  54.2500 Du        
  10492 ****        63.7500  76.7500  54.5000 Du        
  10493 ****        63.7500  76.7500  54.7500 Du        
  10494 ****        63.7500  77.0000  52.7500 Du        
  10495 ****        63.7500  77.0000  53.0000 Du        
  10496 ****        63.7500  77.0000  53.2500 Du        
  10497 ****        63.7500  77.0000  53.5000 Du        
  10498 ****        63.7500  77.0000  53.7500 Du        
  10499 ****        63.7500  77.0000  54.0000 Du        
  10500 ****        63.7500  77.0000  54.2500 Du        
  10501 ****        63.7500  77.0000  54.5000 Du        
  10502 ****        63.7500  77.0000  54.7500 Du        
  10503 ****        63.7500  77.0000  55.0000 Du        
  10504 ****        63.7500  77.0000  55.2500 Du        
  10505 ****        63.7500  77.2500  53.0000 Du        
  10506 ****        63.7500  77.2500  53.2500 Du        
  10507 ****        63.7500  77.2500  53.5000 Du        
  10508 ****        63.7500  77.2500  53.7500 Du        
  10509 ****        63.7500  77.2500  54.0000 Du        
  10510 ****        63.7500  77.2500  54.2500 Du        
  10511 ****        63.7500  77.2500  54.5000 Du        
  10512 ****        63.7500  77.2500  54.7500 Du        
  10513 ****        63.7500  77.2500  55.0000 Du        
  10514 ****        63.7500  77.2500  55.2500 Du        
  10515 ****        63.7500  77.2500  55.5000 Du        
  10516 ****        63.7500  77.5000  53.2500 Du        
  10517 ****        63.7500  77.5000  53.5000 Du        
  10518 ****        63.7500  77.5000  53.7500 Du        
  10519 ****        63.7500  77.5000  54.0000 Du        
  10520 ****        63.7500  77.5000  54.2500 Du        
  10521 ****        63.7500  77.5000  54.5000 Du        
  10522 ****        63.7500  77.5000  54.7500 Du        
  10523 ****        63.7500  77.5000  55.0000 Du        
  10524 ****        63.7500  77.5000  55.2500 Du        
  10525 ****        63.7500  77.5000  55.5000 Du        
  10526 ****        63.7500  77.5000  55.7500 Du        
  10527 ****        63.7500  77.7500  53.2500 Du        
  10528 ****        63.7500  77.7500  53.5000 Du        
  10529 ****        63.7500  77.7500  53.7500 Du        
  10530 ****        63.7500  77.7500  54.0000 Du        
  10531 ****        63.7500  77.7500  54.2500 Du        
  10532 ****        63.7500  77.7500  54.5000 Du        
  10533 ****        63.7500  77.7500  54.7500 Du        
  10534 ****        63.7500  77.7500  55.0000 Du        
  10535 ****        63.7500  77.7500  55.2500 Du        
  10536 ****        63.7500  77.7500  55.5000 Du        
  10537 ****        63.7500  77.7500  55.7500 Du        
  10538 ****        63.7500  78.0000  53.5000 Du        
  10539 ****        63.7500  78.0000  53.7500 Du        
  10540 ****        63.7500  78.0000  54.0000 Du        
  10541 ****        63.7500  78.0000  54.2500 Du        
  10542 ****        63.7500  78.0000  54.5000 Du        
  10543 ****        63.7500  78.0000  54.7500 Du        
  10544 ****        63.7500  78.0000  55.0000 Du        
  10545 ****        63.7500  78.0000  55.2500 Du        
  10546 ****        63.7500  78.0000  55.5000 Du        
  10547 ****        63.7500  78.0000  55.7500 Du        
  10548 ****        63.7500  78.2500  53.5000 Du        
  10549 ****        63.7500  78.2500  53.7500 Du        
  10550 ****        63.7500  78.2500  54.0000 Du        
  10551 ****        63.7500  78.2500  54.2500 Du        
  10552 ****        63.7500  78.2500  54.5000 Du        
  10553 ****        63.7500  78.2500  54.7500 Du        
  10554 ****        63.7500  78.2500  55.0000 Du        
  10555 ****        63.7500  78.2500  55.2500 Du        
  10556 ****        63.7500  78.2500  55.5000 Du        
  10557 ****        63.7500  78.5000  55.0000 Du        
  10558 ****        64.0000  49.0000  63.5000 Du        
  10559 ****        64.0000  49.2500  63.7500 Du        
  10560 ****        64.0000  49.2500  64.0000 Du        
  10561 ****        64.0000  49.5000  64.0000 Du        
  10562 ****        64.0000  49.5000  64.2500 Du        
  10563 ****        64.0000  49.5000  64.5000 Du        
  10564 ****        64.0000  49.7500  64.5000 Du        
  10565 ****        64.0000  49.7500  64.7500 Du        
  10566 ****        64.0000  72.2500  51.7500 Du        
  10567 ****        64.0000  72.2500  52.0000 Du        
  10568 ****        64.0000  72.2500  52.2500 Du        
  10569 ****        64.0000  72.5000  51.5000 Du        
  10570 ****        64.0000  72.5000  51.7500 Du        
  10571 ****        64.0000  72.5000  52.0000 Du        
  10572 ****        64.0000  72.5000  52.2500 Du        
  10573 ****        64.0000  72.5000  52.5000 Du        
  10574 ****        64.0000  72.7500  51.5000 Du        
  10575 ****        64.0000  72.7500  51.7500 Du        
  10576 ****        64.0000  72.7500  52.0000 Du        
  10577 ****        64.0000  72.7500  52.2500 Du        
  10578 ****        64.0000  72.7500  52.5000 Du        
  10579 ****        64.0000  73.0000  51.5000 Du        
  10580 ****        64.0000  73.0000  51.7500 Du        
  10581 ****        64.0000  73.0000  52.0000 Du        
  10582 ****        64.0000  73.0000  52.2500 Du        
  10583 ****        64.0000  73.0000  52.5000 Du        
  10584 ****        64.0000  73.2500  51.5000 Du        
  10585 ****        64.0000  73.2500  51.7500 Du        
  10586 ****        64.0000  73.2500  52.0000 Du        
  10587 ****        64.0000  73.2500  52.2500 Du        
  10588 ****        64.0000  73.2500  52.5000 Du        
  10589 ****        64.0000  73.5000  51.5000 Du        
  10590 ****        64.0000  73.5000  51.7500 Du        
  10591 ****        64.0000  73.5000  52.0000 Du        
  10592 ****        64.0000  73.5000  52.2500 Du        
  10593 ****        64.0000  73.7500  51.2500 Du        
  10594 ****        64.0000  73.7500  51.5000 Du        
  10595 ****        64.0000  73.7500  51.7500 Du        
  10596 ****        64.0000  73.7500  52.0000 Du        
  10597 ****        64.0000  73.7500  52.2500 Du        
  10598 ****        64.0000  74.0000  51.2500 Du        
  10599 ****        64.0000  74.0000  51.5000 Du        
  10600 ****        64.0000  74.0000  51.7500 Du        
  10601 ****        64.0000  74.0000  52.0000 Du        
  10602 ****        64.0000  74.0000  52.2500 Du        
  10603 ****        64.0000  74.2500  51.2500 Du        
  10604 ****        64.0000  74.2500  51.5000 Du        
  10605 ****        64.0000  74.2500  51.7500 Du        
  10606 ****        64.0000  74.2500  52.0000 Du        
  10607 ****        64.0000  74.2500  52.2500 Du        
  10608 ****        64.0000  74.5000  51.2500 Du        
  10609 ****        64.0000  74.5000  51.5000 Du        
  10610 ****        64.0000  74.5000  51.7500 Du        
  10611 ****        64.0000  74.5000  52.0000 Du        
  10612 ****        64.0000  74.5000  52.2500 Du        
  10613 ****        64.0000  74.5000  52.5000 Du        
  10614 ****        64.0000  74.7500  51.5000 Du        
  10615 ****        64.0000  74.7500  51.7500 Du        
  10616 ****        64.0000  74.7500  52.0000 Du        
  10617 ****        64.0000  74.7500  52.2500 Du        
  10618 ****        64.0000  74.7500  52.5000 Du        
  10619 ****        64.0000  75.0000  51.5000 Du        
  10620 ****        64.0000  75.0000  51.7500 Du        
  10621 ****        64.0000  75.0000  52.0000 Du        
  10622 ****        64.0000  75.0000  52.2500 Du        
  10623 ****        64.0000  75.0000  52.5000 Du        
  10624 ****        64.0000  75.0000  52.7500 Du        
  10625 ****        64.0000  75.2500  51.5000 Du        
  10626 ****        64.0000  75.2500  51.7500 Du        
  10627 ****        64.0000  75.2500  52.0000 Du        
  10628 ****        64.0000  75.2500  52.2500 Du        
  10629 ****        64.0000  75.2500  52.5000 Du        
  10630 ****        64.0000  75.2500  52.7500 Du        
  10631 ****        64.0000  75.2500  53.0000 Du        
  10632 ****        64.0000  75.5000  51.5000 Du        
  10633 ****        64.0000  75.5000  51.7500 Du        
  10634 ****        64.0000  75.5000  52.0000 Du        
  10635 ****        64.0000  75.5000  52.2500 Du        
  10636 ****        64.0000  75.5000  52.5000 Du        
  10637 ****        64.0000  75.5000  52.7500 Du        
  10638 ****        64.0000  75.5000  53.0000 Du        
  10639 ****        64.0000  75.7500  51.5000 Du        
  10640 ****        64.0000  75.7500  51.7500 Du        
  10641 ****        64.0000  75.7500  52.0000 Du        
  10642 ****        64.0000  75.7500  52.2500 Du        
  10643 ****        64.0000  75.7500  52.5000 Du        
  10644 ****        64.0000  75.7500  52.7500 Du        
  10645 ****        64.0000  75.7500  53.0000 Du        
  10646 ****        64.0000  75.7500  53.2500 Du        
  10647 ****        64.0000  75.7500  53.5000 Du        
  10648 ****        64.0000  76.0000  51.5000 Du        
  10649 ****        64.0000  76.0000  51.7500 Du        
  10650 ****        64.0000  76.0000  52.0000 Du        
  10651 ****        64.0000  76.0000  52.2500 Du        
  10652 ****        64.0000  76.0000  52.5000 Du        
  10653 ****        64.0000  76.0000  52.7500 Du        
  10654 ****        64.0000  76.0000  53.0000 Du        
  10655 ****        64.0000  76.0000  53.2500 Du        
  10656 ****        64.0000  76.0000  53.5000 Du        
  10657 ****        64.0000  76.0000  53.7500 Du        
  10658 ****        64.0000  76.2500  51.7500 Du        
  10659 ****        64.0000  76.2500  52.0000 Du        
  10660 ****        64.0000  76.2500  52.2500 Du        
  10661 ****        64.0000  76.2500  52.5000 Du        
  10662 ****        64.0000  76.2500  52.7500 Du        
  10663 ****        64.0000  76.2500  53.0000 Du        
  10664 ****        64.0000  76.2500  53.2500 Du        
  10665 ****        64.0000  76.2500  53.5000 Du        
  10666 ****        64.0000  76.2500  53.7500 Du        
  10667 ****        64.0000  76.2500  54.0000 Du        
  10668 ****        64.0000  76.5000  51.7500 Du        
  10669 ****        64.0000  76.5000  52.0000 Du        
  10670 ****        64.0000  76.5000  52.2500 Du        
  10671 ****        64.0000  76.5000  52.5000 Du        
  10672 ****        64.0000  76.5000  52.7500 Du        
  10673 ****        64.0000  76.5000  53.0000 Du        
  10674 ****        64.0000  76.5000  53.2500 Du        
  10675 ****        64.0000  76.5000  53.5000 Du        
  10676 ****        64.0000  76.5000  53.7500 Du        
  10677 ****        64.0000  76.5000  54.0000 Du        
  10678 ****        64.0000  76.5000  54.2500 Du        
  10679 ****        64.0000  76.5000  54.5000 Du        
  10680 ****        64.0000  76.7500  52.0000 Du        
  10681 ****        64.0000  76.7500  52.2500 Du        
  10682 ****        64.0000  76.7500  52.5000 Du        
  10683 ****        64.0000  76.7500  52.7500 Du        
  10684 ****        64.0000  76.7500  53.0000 Du        
  10685 ****        64.0000  76.7500  53.2500 Du        
  10686 ****        64.0000  76.7500  53.5000 Du        
  10687 ****        64.0000  76.7500  53.7500 Du        
  10688 ****        64.0000  76.7500  54.0000 Du        
  10689 ****        64.0000  76.7500  54.2500 Du        
  10690 ****        64.0000  76.7500  54.5000 Du        
  10691 ****        64.0000  76.7500  54.7500 Du        
  10692 ****        64.0000  76.7500  55.0000 Du        
  10693 ****        64.0000  77.0000  52.5000 Du        
  10694 ****        64.0000  77.0000  52.7500 Du        
  10695 ****        64.0000  77.0000  53.0000 Du        
  10696 ****        64.0000  77.0000  53.2500 Du        
  10697 ****        64.0000  77.0000  53.5000 Du        
  10698 ****        64.0000  77.0000  53.7500 Du        
  10699 ****        64.0000  77.0000  54.0000 Du        
  10700 ****        64.0000  77.0000  54.2500 Du        
  10701 ****        64.0000  77.0000  54.5000 Du        
  10702 ****        64.0000  77.0000  54.7500 Du        
  10703 ****        64.0000  77.0000  55.0000 Du        
  10704 ****        64.0000  77.0000  55.2500 Du        
  10705 ****        64.0000  77.0000  55.5000 Du        
  10706 ****        64.0000  77.2500  52.7500 Du        
  10707 ****        64.0000  77.2500  53.0000 Du        
  10708 ****        64.0000  77.2500  53.2500 Du        
  10709 ****        64.0000  77.2500  53.5000 Du        
  10710 ****        64.0000  77.2500  53.7500 Du        
  10711 ****        64.0000  77.2500  54.0000 Du        
  10712 ****        64.0000  77.2500  54.2500 Du        
  10713 ****        64.0000  77.2500  54.5000 Du        
  10714 ****        64.0000  77.2500  54.7500 Du        
  10715 ****        64.0000  77.2500  55.0000 Du        
  10716 ****        64.0000  77.2500  55.2500 Du        
  10717 ****        64.0000  77.2500  55.5000 Du        
  10718 ****        64.0000  77.2500  55.7500 Du        
  10719 ****        64.0000  77.5000  53.0000 Du        
  10720 ****        64.0000  77.5000  53.2500 Du        
  10721 ****        64.0000  77.5000  53.5000 Du        
  10722 ****        64.0000  77.5000  53.7500 Du        
  10723 ****        64.0000  77.5000  54.0000 Du        
  10724 ****        64.0000  77.5000  54.2500 Du        
  10725 ****        64.0000  77.5000  54.5000 Du        
  10726 ****        64.0000  77.5000  54.7500 Du        
  10727 ****        64.0000  77.5000  55.0000 Du        
  10728 ****        64.0000  77.5000  55.2500 Du        
  10729 ****        64.0000  77.5000  55.5000 Du        
  10730 ****        64.0000  77.5000  55.7500 Du        
  10731 ****        64.0000  77.5000  56.0000 Du        
  10732 ****        64.0000  77.7500  53.2500 Du        
  10733 ****        64.0000  77.7500  53.5000 Du        
  10734 ****        64.0000  77.7500  53.7500 Du        
  10735 ****        64.0000  77.7500  54.0000 Du        
  10736 ****        64.0000  77.7500  54.2500 Du        
  10737 ****        64.0000  77.7500  54.5000 Du        
  10738 ****        64.0000  77.7500  54.7500 Du        
  10739 ****        64.0000  77.7500  55.0000 Du        
  10740 ****        64.0000  77.7500  55.2500 Du        
  10741 ****        64.0000  77.7500  55.5000 Du        
  10742 ****        64.0000  77.7500  55.7500 Du        
  10743 ****        64.0000  77.7500  56.0000 Du        
  10744 ****        64.0000  78.0000  53.5000 Du        
  10745 ****        64.0000  78.0000  53.7500 Du        
  10746 ****        64.0000  78.0000  54.0000 Du        
  10747 ****        64.0000  78.0000  54.2500 Du        
  10748 ****        64.0000  78.0000  54.5000 Du        
  10749 ****        64.0000  78.0000  54.7500 Du        
  10750 ****        64.0000  78.0000  55.0000 Du        
  10751 ****        64.0000  78.0000  55.2500 Du        
  10752 ****        64.0000  78.0000  55.5000 Du        
  10753 ****        64.0000  78.0000  55.7500 Du        
  10754 ****        64.0000  78.0000  56.0000 Du        
  10755 ****        64.0000  78.0000  56.2500 Du        
  10756 ****        64.0000  78.2500  54.0000 Du        
  10757 ****        64.0000  78.2500  54.2500 Du        
  10758 ****        64.0000  78.2500  54.5000 Du        
  10759 ****        64.0000  78.2500  54.7500 Du        
  10760 ****        64.0000  78.2500  55.0000 Du        
  10761 ****        64.0000  78.2500  55.2500 Du        
  10762 ****        64.0000  78.2500  55.5000 Du        
  10763 ****        64.0000  78.2500  55.7500 Du        
  10764 ****        64.0000  78.2500  56.0000 Du        
  10765 ****        64.0000  78.2500  56.2500 Du        
  10766 ****        64.2500  49.2500  63.7500 Du        
  10767 ****        64.2500  49.5000  64.0000 Du        
  10768 ****        64.2500  49.7500  64.2500 Du        
  10769 ****        64.2500  49.7500  64.5000 Du        
  10770 ****        64.2500  50.0000  64.5000 Du        
  10771 ****        64.2500  50.0000  64.7500 Du        
  10772 ****        64.2500  72.2500  51.7500 Du        
  10773 ****        64.2500  72.2500  52.0000 Du        
  10774 ****        64.2500  72.2500  52.2500 Du        
  10775 ****        64.2500  72.5000  51.5000 Du        
  10776 ****        64.2500  72.5000  51.7500 Du        
  10777 ****        64.2500  72.5000  52.0000 Du        
  10778 ****        64.2500  72.5000  52.2500 Du        
  10779 ****        64.2500  72.7500  51.2500 Du        
  10780 ****        64.2500  72.7500  51.5000 Du        
  10781 ****        64.2500  72.7500  51.7500 Du        
  10782 ****        64.2500  72.7500  52.0000 Du        
  10783 ****        64.2500  72.7500  52.2500 Du        
  10784 ****        64.2500  73.0000  51.2500 Du        
  10785 ****        64.2500  73.0000  51.5000 Du        
  10786 ****        64.2500  73.0000  51.7500 Du        
  10787 ****        64.2500  73.0000  52.0000 Du        
  10788 ****        64.2500  73.0000  52.2500 Du        
  10789 ****        64.2500  73.2500  51.2500 Du        
  10790 ****        64.2500  73.2500  51.5000 Du        
  10791 ****        64.2500  73.2500  51.7500 Du        
  10792 ****        64.2500  73.2500  52.0000 Du        
  10793 ****        64.2500  73.5000  51.2500 Du        
  10794 ****        64.2500  73.5000  51.5000 Du        
  10795 ****        64.2500  73.5000  51.7500 Du        
  10796 ****        64.2500  73.5000  52.0000 Du        
  10797 ****        64.2500  73.7500  51.0000 Du        
  10798 ****        64.2500  73.7500  51.2500 Du        
  10799 ****        64.2500  73.7500  51.5000 Du        
  10800 ****        64.2500  73.7500  51.7500 Du        
  10801 ****        64.2500  73.7500  52.0000 Du        
  10802 ****        64.2500  74.0000  51.0000 Du        
  10803 ****        64.2500  74.0000  51.2500 Du        
  10804 ****        64.2500  74.0000  51.5000 Du        
  10805 ****        64.2500  74.0000  51.7500 Du        
  10806 ****        64.2500  74.0000  52.0000 Du        
  10807 ****        64.2500  74.2500  51.0000 Du        
  10808 ****        64.2500  74.2500  51.2500 Du        
  10809 ****        64.2500  74.2500  51.5000 Du        
  10810 ****        64.2500  74.2500  51.7500 Du        
  10811 ****        64.2500  74.2500  52.0000 Du        
  10812 ****        64.2500  74.5000  51.2500 Du        
  10813 ****        64.2500  74.5000  51.5000 Du        
  10814 ****        64.2500  74.5000  51.7500 Du        
  10815 ****        64.2500  74.5000  52.0000 Du        
  10816 ****        64.2500  74.7500  51.2500 Du        
  10817 ****        64.2500  74.7500  51.5000 Du        
  10818 ****        64.2500  74.7500  51.7500 Du        
  10819 ****        64.2500  74.7500  52.0000 Du        
  10820 ****        64.2500  74.7500  52.2500 Du        
  10821 ****        64.2500  75.0000  51.2500 Du        
  10822 ****        64.2500  75.0000  51.5000 Du        
  10823 ****        64.2500  75.0000  51.7500 Du        
  10824 ****        64.2500  75.0000  52.0000 Du        
  10825 ****        64.2500  75.0000  52.2500 Du        
  10826 ****        64.2500  75.0000  52.5000 Du        
  10827 ****        64.2500  75.2500  51.5000 Du        
  10828 ****        64.2500  75.2500  51.7500 Du        
  10829 ****        64.2500  75.2500  52.0000 Du        
  10830 ****        64.2500  75.2500  52.2500 Du        
  10831 ****        64.2500  75.2500  52.5000 Du        
  10832 ****        64.2500  75.5000  51.5000 Du        
  10833 ****        64.2500  75.5000  51.7500 Du        
  10834 ****        64.2500  75.5000  52.0000 Du        
  10835 ****        64.2500  75.5000  52.2500 Du        
  10836 ****        64.2500  75.5000  52.5000 Du        
  10837 ****        64.2500  75.5000  52.7500 Du        
  10838 ****        64.2500  75.5000  53.0000 Du        
  10839 ****        64.2500  75.7500  51.5000 Du        
  10840 ****        64.2500  75.7500  51.7500 Du        
  10841 ****        64.2500  75.7500  52.0000 Du        
  10842 ****        64.2500  75.7500  52.2500 Du        
  10843 ****        64.2500  75.7500  52.5000 Du        
  10844 ****        64.2500  75.7500  52.7500 Du        
  10845 ****        64.2500  75.7500  53.0000 Du        
  10846 ****        64.2500  75.7500  53.2500 Du        
  10847 ****        64.2500  76.0000  51.5000 Du        
  10848 ****        64.2500  76.0000  51.7500 Du        
  10849 ****        64.2500  76.0000  52.0000 Du        
  10850 ****        64.2500  76.0000  52.2500 Du        
  10851 ****        64.2500  76.0000  52.5000 Du        
  10852 ****        64.2500  76.0000  52.7500 Du        
  10853 ****        64.2500  76.0000  53.0000 Du        
  10854 ****        64.2500  76.0000  53.2500 Du        
  10855 ****        64.2500  76.0000  53.5000 Du        
  10856 ****        64.2500  76.0000  53.7500 Du        
  10857 ****        64.2500  76.2500  51.5000 Du        
  10858 ****        64.2500  76.2500  51.7500 Du        
  10859 ****        64.2500  76.2500  52.0000 Du        
  10860 ****        64.2500  76.2500  52.2500 Du        
  10861 ****        64.2500  76.2500  52.5000 Du        
  10862 ****        64.2500  76.2500  52.7500 Du        
  10863 ****        64.2500  76.2500  53.0000 Du        
  10864 ****        64.2500  76.2500  53.2500 Du        
  10865 ****        64.2500  76.2500  53.5000 Du        
  10866 ****        64.2500  76.2500  53.7500 Du        
  10867 ****        64.2500  76.2500  54.0000 Du        
  10868 ****        64.2500  76.5000  51.7500 Du        
  10869 ****        64.2500  76.5000  52.0000 Du        
  10870 ****        64.2500  76.5000  52.2500 Du        
  10871 ****        64.2500  76.5000  52.5000 Du        
  10872 ****        64.2500  76.5000  52.7500 Du        
  10873 ****        64.2500  76.5000  53.0000 Du        
  10874 ****        64.2500  76.5000  53.2500 Du        
  10875 ****        64.2500  76.5000  53.5000 Du        
  10876 ****        64.2500  76.5000  53.7500 Du        
  10877 ****        64.2500  76.5000  54.0000 Du        
  10878 ****        64.2500  76.5000  54.2500 Du        
  10879 ****        64.2500  76.5000  54.5000 Du        
  10880 ****        64.2500  76.7500  52.0000 Du        
  10881 ****        64.2500  76.7500  52.2500 Du        
  10882 ****        64.2500  76.7500  52.5000 Du        
  10883 ****        64.2500  76.7500  52.7500 Du        
  10884 ****        64.2500  76.7500  53.0000 Du        
  10885 ****        64.2500  76.7500  53.2500 Du        
  10886 ****        64.2500  76.7500  53.5000 Du        
  10887 ****        64.2500  76.7500  53.7500 Du        
  10888 ****        64.2500  76.7500  54.0000 Du        
  10889 ****        64.2500  76.7500  54.2500 Du        
  10890 ****        64.2500  76.7500  54.5000 Du        
  10891 ****        64.2500  76.7500  54.7500 Du        
  10892 ****        64.2500  76.7500  55.0000 Du        
  10893 ****        64.2500  77.0000  52.5000 Du        
  10894 ****        64.2500  77.0000  52.7500 Du        
  10895 ****        64.2500  77.0000  53.0000 Du        
  10896 ****        64.2500  77.0000  53.2500 Du        
  10897 ****        64.2500  77.0000  53.5000 Du        
  10898 ****        64.2500  77.0000  53.7500 Du        
  10899 ****        64.2500  77.0000  54.0000 Du        
  10900 ****        64.2500  77.0000  54.2500 Du        
  10901 ****        64.2500  77.0000  54.5000 Du        
  10902 ****        64.2500  77.0000  54.7500 Du        
  10903 ****        64.2500  77.0000  55.0000 Du        
  10904 ****        64.2500  77.0000  55.2500 Du        
  10905 ****        64.2500  77.0000  55.5000 Du        
  10906 ****        64.2500  77.2500  52.7500 Du        
  10907 ****        64.2500  77.2500  53.0000 Du        
  10908 ****        64.2500  77.2500  53.2500 Du        
  10909 ****        64.2500  77.2500  53.5000 Du        
  10910 ****        64.2500  77.2500  53.7500 Du        
  10911 ****        64.2500  77.2500  54.0000 Du        
  10912 ****        64.2500  77.2500  54.2500 Du        
  10913 ****        64.2500  77.2500  54.5000 Du        
  10914 ****        64.2500  77.2500  54.7500 Du        
  10915 ****        64.2500  77.2500  55.0000 Du        
  10916 ****        64.2500  77.2500  55.2500 Du        
  10917 ****        64.2500  77.2500  55.5000 Du        
  10918 ****        64.2500  77.2500  55.7500 Du        
  10919 ****        64.2500  77.2500  56.0000 Du        
  10920 ****        64.2500  77.5000  53.0000 Du        
  10921 ****        64.2500  77.5000  53.2500 Du        
  10922 ****        64.2500  77.5000  53.5000 Du        
  10923 ****        64.2500  77.5000  53.7500 Du        
  10924 ****        64.2500  77.5000  54.0000 Du        
  10925 ****        64.2500  77.5000  54.2500 Du        
  10926 ****        64.2500  77.5000  54.5000 Du        
  10927 ****        64.2500  77.5000  54.7500 Du        
  10928 ****        64.2500  77.5000  55.0000 Du        
  10929 ****        64.2500  77.5000  55.2500 Du        
  10930 ****        64.2500  77.5000  55.5000 Du        
  10931 ****        64.2500  77.5000  55.7500 Du        
  10932 ****        64.2500  77.5000  56.0000 Du        
  10933 ****        64.2500  77.7500  53.2500 Du        
  10934 ****        64.2500  77.7500  53.5000 Du        
  10935 ****        64.2500  77.7500  53.7500 Du        
  10936 ****        64.2500  77.7500  54.0000 Du        
  10937 ****        64.2500  77.7500  54.2500 Du        
  10938 ****        64.2500  77.7500  54.5000 Du        
  10939 ****        64.2500  77.7500  54.7500 Du        
  10940 ****        64.2500  77.7500  55.0000 Du        
  10941 ****        64.2500  77.7500  55.2500 Du        
  10942 ****        64.2500  77.7500  55.5000 Du        
  10943 ****        64.2500  77.7500  55.7500 Du        
  10944 ****        64.2500  77.7500  56.0000 Du        
  10945 ****        64.2500  77.7500  56.2500 Du        
  10946 ****        64.2500  78.0000  53.2500 Du        
  10947 ****        64.2500  78.0000  53.5000 Du        
  10948 ****        64.2500  78.0000  53.7500 Du        
  10949 ****        64.2500  78.0000  54.0000 Du        
  10950 ****        64.2500  78.0000  54.2500 Du        
  10951 ****        64.2500  78.0000  54.5000 Du        
  10952 ****        64.2500  78.0000  54.7500 Du        
  10953 ****        64.2500  78.0000  55.0000 Du        
  10954 ****        64.2500  78.0000  55.2500 Du        
  10955 ****        64.2500  78.0000  55.5000 Du        
  10956 ****        64.2500  78.0000  55.7500 Du        
  10957 ****        64.2500  78.0000  56.0000 Du        
  10958 ****        64.2500  78.0000  56.2500 Du        
  10959 ****        64.2500  78.2500  55.5000 Du        
  10960 ****        64.2500  78.2500  55.7500 Du        
  10961 ****        64.2500  78.2500  56.0000 Du        
  10962 ****        64.2500  78.2500  56.2500 Du        
  10963 ****        64.2500  78.2500  56.5000 Du        
  10964 ****        64.5000  49.7500  64.0000 Du        
  10965 ****        64.5000  49.7500  64.2500 Du        
  10966 ****        64.5000  50.0000  64.2500 Du        
  10967 ****        64.5000  50.0000  64.5000 Du        
  10968 ****        64.5000  50.2500  64.5000 Du        
  10969 ****        64.5000  50.2500  64.7500 Du        
  10970 ****        64.5000  50.5000  64.5000 Du        
  10971 ****        64.5000  72.2500  51.5000 Du        
  10972 ****        64.5000  72.2500  51.7500 Du        
  10973 ****        64.5000  72.5000  51.2500 Du        
  10974 ****        64.5000  72.5000  51.5000 Du        
  10975 ****        64.5000  72.5000  51.7500 Du        
  10976 ****        64.5000  72.5000  52.0000 Du        
  10977 ****        64.5000  72.7500  51.0000 Du        
  10978 ****        64.5000  72.7500  51.2500 Du        
  10979 ****        64.5000  72.7500  51.5000 Du        
  10980 ****        64.5000  72.7500  51.7500 Du        
  10981 ****        64.5000  72.7500  52.0000 Du        
  10982 ****        64.5000  73.0000  51.0000 Du        
  10983 ****        64.5000  73.0000  51.2500 Du        
  10984 ****        64.5000  73.0000  51.5000 Du        
  10985 ****        64.5000  73.0000  51.7500 Du        
  10986 ****        64.5000  73.0000  52.0000 Du        
  10987 ****        64.5000  73.2500  51.0000 Du        
  10988 ****        64.5000  73.2500  51.2500 Du        
  10989 ****        64.5000  73.2500  51.5000 Du        
  10990 ****        64.5000  73.2500  51.7500 Du        
  10991 ****        64.5000  73.5000  51.0000 Du        
  10992 ****        64.5000  73.5000  51.2500 Du        
  10993 ****        64.5000  73.5000  51.5000 Du        
  10994 ****        64.5000  73.5000  51.7500 Du        
  10995 ****        64.5000  73.7500  50.7500 Du        
  10996 ****        64.5000  73.7500  51.0000 Du        
  10997 ****        64.5000  73.7500  51.2500 Du        
  10998 ****        64.5000  73.7500  51.5000 Du        
  10999 ****        64.5000  73.7500  51.7500 Du        
  11000 ****        64.5000  74.0000  50.7500 Du        
  11001 ****        64.5000  74.0000  51.0000 Du        
  11002 ****        64.5000  74.0000  51.2500 Du        
  11003 ****        64.5000  74.0000  51.5000 Du        
  11004 ****        64.5000  74.0000  51.7500 Du        
  11005 ****        64.5000  74.2500  51.0000 Du        
  11006 ****        64.5000  74.2500  51.2500 Du        
  11007 ****        64.5000  74.2500  51.5000 Du        
  11008 ****        64.5000  74.2500  51.7500 Du        
  11009 ****        64.5000  74.5000  51.0000 Du        
  11010 ****        64.5000  74.5000  51.2500 Du        
  11011 ****        64.5000  74.5000  51.5000 Du        
  11012 ****        64.5000  74.5000  51.7500 Du        
  11013 ****        64.5000  74.7500  51.0000 Du        
  11014 ****        64.5000  74.7500  51.2500 Du        
  11015 ****        64.5000  74.7500  51.5000 Du        
  11016 ****        64.5000  74.7500  51.7500 Du        
  11017 ****        64.5000  74.7500  52.0000 Du        
  11018 ****        64.5000  75.0000  51.2500 Du        
  11019 ****        64.5000  75.0000  51.5000 Du        
  11020 ****        64.5000  75.0000  51.7500 Du        
  11021 ****        64.5000  75.0000  52.0000 Du        
  11022 ****        64.5000  75.2500  51.2500 Du        
  11023 ****        64.5000  75.2500  51.5000 Du        
  11024 ****        64.5000  75.2500  51.7500 Du        
  11025 ****        64.5000  75.2500  52.0000 Du        
  11026 ****        64.5000  75.2500  52.2500 Du        
  11027 ****        64.5000  75.5000  51.2500 Du        
  11028 ****        64.5000  75.5000  51.5000 Du        
  11029 ****        64.5000  75.5000  51.7500 Du        
  11030 ****        64.5000  75.5000  52.0000 Du        
  11031 ****        64.5000  75.5000  52.2500 Du        
  11032 ****        64.5000  75.5000  52.5000 Du        
  11033 ****        64.5000  75.7500  51.2500 Du        
  11034 ****        64.5000  75.7500  51.5000 Du        
  11035 ****        64.5000  75.7500  51.7500 Du        
  11036 ****        64.5000  75.7500  52.0000 Du        
  11037 ****        64.5000  75.7500  52.2500 Du        
  11038 ****        64.5000  75.7500  52.5000 Du        
  11039 ****        64.5000  75.7500  52.7500 Du        
  11040 ****        64.5000  76.0000  51.2500 Du        
  11041 ****        64.5000  76.0000  51.5000 Du        
  11042 ****        64.5000  76.0000  51.7500 Du        
  11043 ****        64.5000  76.0000  52.0000 Du        
  11044 ****        64.5000  76.0000  52.2500 Du        
  11045 ****        64.5000  76.0000  52.5000 Du        
  11046 ****        64.5000  76.0000  52.7500 Du        
  11047 ****        64.5000  76.0000  53.0000 Du        
  11048 ****        64.5000  76.0000  53.2500 Du        
  11049 ****        64.5000  76.2500  51.2500 Du        
  11050 ****        64.5000  76.2500  51.5000 Du        
  11051 ****        64.5000  76.2500  51.7500 Du        
  11052 ****        64.5000  76.2500  52.0000 Du        
  11053 ****        64.5000  76.2500  52.2500 Du        
  11054 ****        64.5000  76.2500  52.5000 Du        
  11055 ****        64.5000  76.2500  52.7500 Du        
  11056 ****        64.5000  76.2500  53.0000 Du        
  11057 ****        64.5000  76.2500  53.2500 Du        
  11058 ****        64.5000  76.2500  53.5000 Du        
  11059 ****        64.5000  76.2500  53.7500 Du        
  11060 ****        64.5000  76.5000  51.5000 Du        
  11061 ****        64.5000  76.5000  51.7500 Du        
  11062 ****        64.5000  76.5000  52.0000 Du        
  11063 ****        64.5000  76.5000  52.2500 Du        
  11064 ****        64.5000  76.5000  52.5000 Du        
  11065 ****        64.5000  76.5000  52.7500 Du        
  11066 ****        64.5000  76.5000  53.0000 Du        
  11067 ****        64.5000  76.5000  53.2500 Du        
  11068 ****        64.5000  76.5000  53.5000 Du        
  11069 ****        64.5000  76.5000  53.7500 Du        
  11070 ****        64.5000  76.5000  54.0000 Du        
  11071 ****        64.5000  76.5000  54.2500 Du        
  11072 ****        64.5000  76.7500  51.7500 Du        
  11073 ****        64.5000  76.7500  52.0000 Du        
  11074 ****        64.5000  76.7500  52.2500 Du        
  11075 ****        64.5000  76.7500  52.5000 Du        
  11076 ****        64.5000  76.7500  52.7500 Du        
  11077 ****        64.5000  76.7500  53.0000 Du        
  11078 ****        64.5000  76.7500  53.2500 Du        
  11079 ****        64.5000  76.7500  53.5000 Du        
  11080 ****        64.5000  76.7500  53.7500 Du        
  11081 ****        64.5000  76.7500  54.0000 Du        
  11082 ****        64.5000  76.7500  54.2500 Du        
  11083 ****        64.5000  76.7500  54.5000 Du        
  11084 ****        64.5000  77.0000  52.2500 Du        
  11085 ****        64.5000  77.0000  52.5000 Du        
  11086 ****        64.5000  77.0000  52.7500 Du        
  11087 ****        64.5000  77.0000  53.0000 Du        
  11088 ****        64.5000  77.0000  53.2500 Du        
  11089 ****        64.5000  77.0000  53.5000 Du        
  11090 ****        64.5000  77.0000  53.7500 Du        
  11091 ****        64.5000  77.0000  54.0000 Du        
  11092 ****        64.5000  77.0000  54.2500 Du        
  11093 ****        64.5000  77.0000  54.5000 Du        
  11094 ****        64.5000  77.0000  54.7500 Du        
  11095 ****        64.5000  77.0000  55.0000 Du        
  11096 ****        64.5000  77.0000  55.2500 Du        
  11097 ****        64.5000  77.2500  52.7500 Du        
  11098 ****        64.5000  77.2500  53.0000 Du        
  11099 ****        64.5000  77.2500  53.2500 Du        
  11100 ****        64.5000  77.2500  53.5000 Du        
  11101 ****        64.5000  77.2500  53.7500 Du        
  11102 ****        64.5000  77.2500  54.0000 Du        
  11103 ****        64.5000  77.2500  54.2500 Du        
  11104 ****        64.5000  77.2500  54.5000 Du        
  11105 ****        64.5000  77.2500  54.7500 Du        
  11106 ****        64.5000  77.2500  55.0000 Du        
  11107 ****        64.5000  77.2500  55.2500 Du        
  11108 ****        64.5000  77.2500  55.5000 Du        
  11109 ****        64.5000  77.2500  55.7500 Du        
  11110 ****        64.5000  77.5000  53.0000 Du        
  11111 ****        64.5000  77.5000  53.2500 Du        
  11112 ****        64.5000  77.5000  53.5000 Du        
  11113 ****        64.5000  77.5000  53.7500 Du        
  11114 ****        64.5000  77.5000  54.0000 Du        
  11115 ****        64.5000  77.5000  54.2500 Du        
  11116 ****        64.5000  77.5000  54.5000 Du        
  11117 ****        64.5000  77.5000  54.7500 Du        
  11118 ****        64.5000  77.5000  55.0000 Du        
  11119 ****        64.5000  77.5000  55.2500 Du        
  11120 ****        64.5000  77.5000  55.5000 Du        
  11121 ****        64.5000  77.5000  55.7500 Du        
  11122 ****        64.5000  77.5000  56.0000 Du        
  11123 ****        64.5000  77.7500  53.0000 Du        
  11124 ****        64.5000  77.7500  53.2500 Du        
  11125 ****        64.5000  77.7500  53.5000 Du        
  11126 ****        64.5000  77.7500  53.7500 Du        
  11127 ****        64.5000  77.7500  54.0000 Du        
  11128 ****        64.5000  77.7500  54.2500 Du        
  11129 ****        64.5000  77.7500  54.5000 Du        
  11130 ****        64.5000  77.7500  54.7500 Du        
  11131 ****        64.5000  77.7500  55.0000 Du        
  11132 ****        64.5000  77.7500  55.2500 Du        
  11133 ****        64.5000  77.7500  55.5000 Du        
  11134 ****        64.5000  77.7500  55.7500 Du        
  11135 ****        64.5000  77.7500  56.0000 Du        
  11136 ****        64.5000  77.7500  56.2500 Du        
  11137 ****        64.5000  78.0000  54.2500 Du        
  11138 ****        64.5000  78.0000  54.5000 Du        
  11139 ****        64.5000  78.0000  54.7500 Du        
  11140 ****        64.5000  78.0000  55.0000 Du        
  11141 ****        64.5000  78.0000  55.2500 Du        
  11142 ****        64.5000  78.0000  55.5000 Du        
  11143 ****        64.5000  78.0000  55.7500 Du        
  11144 ****        64.5000  78.0000  56.0000 Du        
  11145 ****        64.5000  78.0000  56.2500 Du        
  11146 ****        64.7500  49.7500  64.0000 Du        
  11147 ****        64.7500  50.0000  64.2500 Du        
  11148 ****        64.7500  50.2500  64.5000 Du        
  11149 ****        64.7500  50.7500  64.5000 Du        
  11150 ****        64.7500  72.2500  51.0000 Du        
  11151 ****        64.7500  72.2500  51.2500 Du        
  11152 ****        64.7500  72.2500  51.5000 Du        
  11153 ****        64.7500  72.2500  51.7500 Du        
  11154 ****        64.7500  72.5000  50.7500 Du        
  11155 ****        64.7500  72.5000  51.0000 Du        
  11156 ****        64.7500  72.5000  51.2500 Du        
  11157 ****        64.7500  72.5000  51.5000 Du        
  11158 ****        64.7500  72.5000  51.7500 Du        
  11159 ****        64.7500  72.7500  50.7500 Du        
  11160 ****        64.7500  72.7500  51.0000 Du        
  11161 ****        64.7500  72.7500  51.2500 Du        
  11162 ****        64.7500  72.7500  51.5000 Du        
  11163 ****        64.7500  72.7500  51.7500 Du        
  11164 ****        64.7500  73.0000  50.7500 Du        
  11165 ****        64.7500  73.0000  51.0000 Du        
  11166 ****        64.7500  73.0000  51.2500 Du        
  11167 ****        64.7500  73.0000  51.5000 Du        
  11168 ****        64.7500  73.0000  51.7500 Du        
  11169 ****        64.7500  73.2500  50.5000 Du        
  11170 ****        64.7500  73.2500  50.7500 Du        
  11171 ****        64.7500  73.2500  51.0000 Du        
  11172 ****        64.7500  73.2500  51.2500 Du        
  11173 ****        64.7500  73.2500  51.5000 Du        
  11174 ****        64.7500  73.2500  51.7500 Du        
  11175 ****        64.7500  73.5000  50.5000 Du        
  11176 ****        64.7500  73.5000  50.7500 Du        
  11177 ****        64.7500  73.5000  51.0000 Du        
  11178 ****        64.7500  73.5000  51.2500 Du        
  11179 ****        64.7500  73.5000  51.5000 Du        
  11180 ****        64.7500  73.7500  50.5000 Du        
  11181 ****        64.7500  73.7500  50.7500 Du        
  11182 ****        64.7500  73.7500  51.0000 Du        
  11183 ****        64.7500  73.7500  51.2500 Du        
  11184 ****        64.7500  73.7500  51.5000 Du        
  11185 ****        64.7500  74.0000  50.5000 Du        
  11186 ****        64.7500  74.0000  50.7500 Du        
  11187 ****        64.7500  74.0000  51.0000 Du        
  11188 ****        64.7500  74.0000  51.2500 Du        
  11189 ****        64.7500  74.0000  51.5000 Du        
  11190 ****        64.7500  74.2500  50.7500 Du        
  11191 ****        64.7500  74.2500  51.0000 Du        
  11192 ****        64.7500  74.2500  51.2500 Du        
  11193 ****        64.7500  74.2500  51.5000 Du        
  11194 ****        64.7500  74.5000  50.7500 Du        
  11195 ****        64.7500  74.5000  51.0000 Du        
  11196 ****        64.7500  74.5000  51.2500 Du        
  11197 ****        64.7500  74.5000  51.5000 Du        
  11198 ****        64.7500  74.7500  51.0000 Du        
  11199 ****        64.7500  74.7500  51.2500 Du        
  11200 ****        64.7500  74.7500  51.5000 Du        
  11201 ****        64.7500  74.7500  51.7500 Du        
  11202 ****        64.7500  75.0000  51.0000 Du        
  11203 ****        64.7500  75.0000  51.2500 Du        
  11204 ****        64.7500  75.0000  51.5000 Du        
  11205 ****        64.7500  75.0000  51.7500 Du        
  11206 ****        64.7500  75.2500  51.0000 Du        
  11207 ****        64.7500  75.2500  51.2500 Du        
  11208 ****        64.7500  75.2500  51.5000 Du        
  11209 ****        64.7500  75.2500  51.7500 Du        
  11210 ****        64.7500  75.2500  52.0000 Du        
  11211 ****        64.7500  75.5000  51.2500 Du        
  11212 ****        64.7500  75.5000  51.5000 Du        
  11213 ****        64.7500  75.5000  51.7500 Du        
  11214 ****        64.7500  75.5000  52.0000 Du        
  11215 ****        64.7500  75.5000  52.2500 Du        
  11216 ****        64.7500  75.7500  51.2500 Du        
  11217 ****        64.7500  75.7500  51.5000 Du        
  11218 ****        64.7500  75.7500  51.7500 Du        
  11219 ****        64.7500  75.7500  52.0000 Du        
  11220 ****        64.7500  75.7500  52.2500 Du        
  11221 ****        64.7500  75.7500  52.5000 Du        
  11222 ****        64.7500  76.0000  51.2500 Du        
  11223 ****        64.7500  76.0000  51.5000 Du        
  11224 ****        64.7500  76.0000  51.7500 Du        
  11225 ****        64.7500  76.0000  52.0000 Du        
  11226 ****        64.7500  76.0000  52.2500 Du        
  11227 ****        64.7500  76.0000  52.5000 Du        
  11228 ****        64.7500  76.0000  52.7500 Du        
  11229 ****        64.7500  76.0000  53.0000 Du        
  11230 ****        64.7500  76.2500  51.2500 Du        
  11231 ****        64.7500  76.2500  51.5000 Du        
  11232 ****        64.7500  76.2500  51.7500 Du        
  11233 ****        64.7500  76.2500  52.0000 Du        
  11234 ****        64.7500  76.2500  52.2500 Du        
  11235 ****        64.7500  76.2500  52.5000 Du        
  11236 ****        64.7500  76.2500  52.7500 Du        
  11237 ****        64.7500  76.2500  53.0000 Du        
  11238 ****        64.7500  76.2500  53.2500 Du        
  11239 ****        64.7500  76.2500  53.5000 Du        
  11240 ****        64.7500  76.5000  51.2500 Du        
  11241 ****        64.7500  76.5000  51.5000 Du        
  11242 ****        64.7500  76.5000  51.7500 Du        
  11243 ****        64.7500  76.5000  52.0000 Du        
  11244 ****        64.7500  76.5000  52.2500 Du        
  11245 ****        64.7500  76.5000  52.5000 Du        
  11246 ****        64.7500  76.5000  52.7500 Du        
  11247 ****        64.7500  76.5000  53.0000 Du        
  11248 ****        64.7500  76.5000  53.2500 Du        
  11249 ****        64.7500  76.5000  53.5000 Du        
  11250 ****        64.7500  76.5000  53.7500 Du        
  11251 ****        64.7500  76.5000  54.0000 Du        
  11252 ****        64.7500  76.7500  51.5000 Du        
  11253 ****        64.7500  76.7500  51.7500 Du        
  11254 ****        64.7500  76.7500  52.0000 Du        
  11255 ****        64.7500  76.7500  52.2500 Du        
  11256 ****        64.7500  76.7500  52.5000 Du        
  11257 ****        64.7500  76.7500  52.7500 Du        
  11258 ****        64.7500  76.7500  53.0000 Du        
  11259 ****        64.7500  76.7500  53.2500 Du        
  11260 ****        64.7500  76.7500  53.5000 Du        
  11261 ****        64.7500  76.7500  53.7500 Du        
  11262 ****        64.7500  76.7500  54.0000 Du        
  11263 ****        64.7500  76.7500  54.2500 Du        
  11264 ****        64.7500  77.0000  52.0000 Du        
  11265 ****        64.7500  77.0000  52.2500 Du        
  11266 ****        64.7500  77.0000  52.5000 Du        
  11267 ****        64.7500  77.0000  52.7500 Du        
  11268 ****        64.7500  77.0000  53.0000 Du        
  11269 ****        64.7500  77.0000  53.2500 Du        
  11270 ****        64.7500  77.0000  53.5000 Du        
  11271 ****        64.7500  77.0000  53.7500 Du        
  11272 ****        64.7500  77.0000  54.0000 Du        
  11273 ****        64.7500  77.0000  54.2500 Du        
  11274 ****        64.7500  77.0000  54.5000 Du        
  11275 ****        64.7500  77.0000  54.7500 Du        
  11276 ****        64.7500  77.2500  52.5000 Du        
  11277 ****        64.7500  77.2500  52.7500 Du        
  11278 ****        64.7500  77.2500  53.0000 Du        
  11279 ****        64.7500  77.2500  53.2500 Du        
  11280 ****        64.7500  77.2500  53.5000 Du        
  11281 ****        64.7500  77.2500  53.7500 Du        
  11282 ****        64.7500  77.2500  54.0000 Du        
  11283 ****        64.7500  77.2500  54.2500 Du        
  11284 ****        64.7500  77.2500  54.5000 Du        
  11285 ****        64.7500  77.2500  54.7500 Du        
  11286 ****        64.7500  77.2500  55.0000 Du        
  11287 ****        64.7500  77.2500  55.2500 Du        
  11288 ****        64.7500  77.5000  52.7500 Du        
  11289 ****        64.7500  77.5000  53.0000 Du        
  11290 ****        64.7500  77.5000  53.2500 Du        
  11291 ****        64.7500  77.5000  53.5000 Du        
  11292 ****        64.7500  77.5000  53.7500 Du        
  11293 ****        64.7500  77.5000  54.0000 Du        
  11294 ****        64.7500  77.5000  54.2500 Du        
  11295 ****        64.7500  77.5000  54.5000 Du        
  11296 ****        64.7500  77.5000  54.7500 Du        
  11297 ****        64.7500  77.5000  55.0000 Du        
  11298 ****        64.7500  77.5000  55.2500 Du        
  11299 ****        64.7500  77.5000  55.5000 Du        
  11300 ****        64.7500  77.5000  55.7500 Du        
  11301 ****        64.7500  77.5000  56.0000 Du        
  11302 ****        64.7500  77.7500  53.7500 Du        
  11303 ****        64.7500  77.7500  54.0000 Du        
  11304 ****        64.7500  77.7500  54.2500 Du        
  11305 ****        64.7500  77.7500  54.5000 Du        
  11306 ****        64.7500  77.7500  54.7500 Du        
  11307 ****        64.7500  77.7500  55.0000 Du        
  11308 ****        64.7500  77.7500  55.2500 Du        
  11309 ****        64.7500  77.7500  55.5000 Du        
  11310 ****        64.7500  77.7500  55.7500 Du        
  11311 ****        64.7500  77.7500  56.0000 Du        
  11312 ****        65.0000  72.2500  50.5000 Du        
  11313 ****        65.0000  72.2500  50.7500 Du        
  11314 ****        65.0000  72.2500  51.0000 Du        
  11315 ****        65.0000  72.2500  51.2500 Du        
  11316 ****        65.0000  72.2500  51.5000 Du        
  11317 ****        65.0000  72.5000  50.5000 Du        
  11318 ****        65.0000  72.5000  50.7500 Du        
  11319 ****        65.0000  72.5000  51.0000 Du        
  11320 ****        65.0000  72.5000  51.2500 Du        
  11321 ****        65.0000  72.5000  51.5000 Du        
  11322 ****        65.0000  72.7500  50.5000 Du        
  11323 ****        65.0000  72.7500  50.7500 Du        
  11324 ****        65.0000  72.7500  51.0000 Du        
  11325 ****        65.0000  72.7500  51.2500 Du        
  11326 ****        65.0000  72.7500  51.5000 Du        
  11327 ****        65.0000  73.0000  50.5000 Du        
  11328 ****        65.0000  73.0000  50.7500 Du        
  11329 ****        65.0000  73.0000  51.0000 Du        
  11330 ****        65.0000  73.0000  51.2500 Du        
  11331 ****        65.0000  73.0000  51.5000 Du        
  11332 ****        65.0000  73.2500  50.5000 Du        
  11333 ****        65.0000  73.2500  50.7500 Du        
  11334 ****        65.0000  73.2500  51.0000 Du        
  11335 ****        65.0000  73.2500  51.2500 Du        
  11336 ****        65.0000  73.2500  51.5000 Du        
  11337 ****        65.0000  73.5000  50.5000 Du        
  11338 ****        65.0000  73.5000  50.7500 Du        
  11339 ****        65.0000  73.5000  51.0000 Du        
  11340 ****        65.0000  73.5000  51.2500 Du        
  11341 ****        65.0000  73.7500  50.2500 Du        
  11342 ****        65.0000  73.7500  50.5000 Du        
  11343 ****        65.0000  73.7500  50.7500 Du        
  11344 ****        65.0000  73.7500  51.0000 Du        
  11345 ****        65.0000  73.7500  51.2500 Du        
  11346 ****        65.0000  74.0000  50.5000 Du        
  11347 ****        65.0000  74.0000  50.7500 Du        
  11348 ****        65.0000  74.0000  51.0000 Du        
  11349 ****        65.0000  74.0000  51.2500 Du        
  11350 ****        65.0000  74.2500  50.5000 Du        
  11351 ****        65.0000  74.2500  50.7500 Du        
  11352 ****        65.0000  74.2500  51.0000 Du        
  11353 ****        65.0000  74.2500  51.2500 Du        
  11354 ****        65.0000  74.2500  51.5000 Du        
  11355 ****        65.0000  74.5000  50.5000 Du        
  11356 ****        65.0000  74.5000  50.7500 Du        
  11357 ****        65.0000  74.5000  51.0000 Du        
  11358 ****        65.0000  74.5000  51.2500 Du        
  11359 ****        65.0000  74.5000  51.5000 Du        
  11360 ****        65.0000  74.7500  50.7500 Du        
  11361 ****        65.0000  74.7500  51.0000 Du        
  11362 ****        65.0000  74.7500  51.2500 Du        
  11363 ****        65.0000  74.7500  51.5000 Du        
  11364 ****        65.0000  75.0000  50.7500 Du        
  11365 ****        65.0000  75.0000  51.0000 Du        
  11366 ****        65.0000  75.0000  51.2500 Du        
  11367 ****        65.0000  75.0000  51.5000 Du        
  11368 ****        65.0000  75.0000  51.7500 Du        
  11369 ****        65.0000  75.2500  50.7500 Du        
  11370 ****        65.0000  75.2500  51.0000 Du        
  11371 ****        65.0000  75.2500  51.2500 Du        
  11372 ****        65.0000  75.2500  51.5000 Du        
  11373 ****        65.0000  75.2500  51.7500 Du        
  11374 ****        65.0000  75.5000  51.0000 Du        
  11375 ****        65.0000  75.5000  51.2500 Du        
  11376 ****        65.0000  75.5000  51.5000 Du        
  11377 ****        65.0000  75.5000  51.7500 Du        
  11378 ****        65.0000  75.5000  52.0000 Du        
  11379 ****        65.0000  75.7500  51.0000 Du        
  11380 ****        65.0000  75.7500  51.2500 Du        
  11381 ****        65.0000  75.7500  51.5000 Du        
  11382 ****        65.0000  75.7500  51.7500 Du        
  11383 ****        65.0000  75.7500  52.0000 Du        
  11384 ****        65.0000  75.7500  52.2500 Du        
  11385 ****        65.0000  76.0000  51.0000 Du        
  11386 ****        65.0000  76.0000  51.2500 Du        
  11387 ****        65.0000  76.0000  51.5000 Du        
  11388 ****        65.0000  76.0000  51.7500 Du        
  11389 ****        65.0000  76.0000  52.0000 Du        
  11390 ****        65.0000  76.0000  52.2500 Du        
  11391 ****        65.0000  76.0000  52.5000 Du        
  11392 ****        65.0000  76.2500  51.0000 Du        
  11393 ****        65.0000  76.2500  51.2500 Du        
  11394 ****        65.0000  76.2500  51.5000 Du        
  11395 ****        65.0000  76.2500  51.7500 Du        
  11396 ****        65.0000  76.2500  52.0000 Du        
  11397 ****        65.0000  76.2500  52.2500 Du        
  11398 ****        65.0000  76.2500  52.5000 Du        
  11399 ****        65.0000  76.2500  52.7500 Du        
  11400 ****        65.0000  76.2500  53.0000 Du        
  11401 ****        65.0000  76.2500  53.2500 Du        
  11402 ****        65.0000  76.5000  51.0000 Du        
  11403 ****        65.0000  76.5000  51.2500 Du        
  11404 ****        65.0000  76.5000  51.5000 Du        
  11405 ****        65.0000  76.5000  51.7500 Du        
  11406 ****        65.0000  76.5000  52.0000 Du        
  11407 ****        65.0000  76.5000  52.2500 Du        
  11408 ****        65.0000  76.5000  52.5000 Du        
  11409 ****        65.0000  76.5000  52.7500 Du        
  11410 ****        65.0000  76.5000  53.0000 Du        
  11411 ****        65.0000  76.5000  53.2500 Du        
  11412 ****        65.0000  76.5000  53.5000 Du        
  11413 ****        65.0000  76.7500  51.2500 Du        
  11414 ****        65.0000  76.7500  51.5000 Du        
  11415 ****        65.0000  76.7500  51.7500 Du        
  11416 ****        65.0000  76.7500  52.0000 Du        
  11417 ****        65.0000  76.7500  52.2500 Du        
  11418 ****        65.0000  76.7500  52.5000 Du        
  11419 ****        65.0000  76.7500  52.7500 Du        
  11420 ****        65.0000  76.7500  53.0000 Du        
  11421 ****        65.0000  76.7500  53.2500 Du        
  11422 ****        65.0000  76.7500  53.5000 Du        
  11423 ****        65.0000  76.7500  53.7500 Du        
  11424 ****        65.0000  76.7500  54.0000 Du        
  11425 ****        65.0000  77.0000  51.7500 Du        
  11426 ****        65.0000  77.0000  52.0000 Du        
  11427 ****        65.0000  77.0000  52.2500 Du        
  11428 ****        65.0000  77.0000  52.5000 Du        
  11429 ****        65.0000  77.0000  52.7500 Du        
  11430 ****        65.0000  77.0000  53.0000 Du        
  11431 ****        65.0000  77.0000  53.2500 Du        
  11432 ****        65.0000  77.0000  53.5000 Du        
  11433 ****        65.0000  77.0000  53.7500 Du        
  11434 ****        65.0000  77.0000  54.0000 Du        
  11435 ****        65.0000  77.0000  54.2500 Du        
  11436 ****        65.0000  77.2500  52.5000 Du        
  11437 ****        65.0000  77.2500  52.7500 Du        
  11438 ****        65.0000  77.2500  53.0000 Du        
  11439 ****        65.0000  77.2500  53.2500 Du        
  11440 ****        65.0000  77.2500  53.5000 Du        
  11441 ****        65.0000  77.2500  53.7500 Du        
  11442 ****        65.0000  77.2500  54.0000 Du        
  11443 ****        65.0000  77.2500  54.2500 Du        
  11444 ****        65.0000  77.2500  54.5000 Du        
  11445 ****        65.0000  77.2500  54.7500 Du        
  11446 ****        65.0000  77.5000  53.2500 Du        
  11447 ****        65.0000  77.5000  53.5000 Du        
  11448 ****        65.0000  77.5000  53.7500 Du        
  11449 ****        65.0000  77.5000  54.0000 Du        
  11450 ****        65.0000  77.5000  54.2500 Du        
  11451 ****        65.0000  77.5000  54.5000 Du        
  11452 ****        65.0000  77.5000  54.7500 Du        
  11453 ****        65.0000  77.5000  55.0000 Du        
  11454 ****        65.0000  77.5000  55.2500 Du        
  11455 ****        65.0000  77.5000  55.5000 Du        
  11456 ****        65.0000  77.7500  55.0000 Du        
  11457 ****        65.0000  77.7500  55.2500 Du        
  11458 ****        65.0000  77.7500  55.5000 Du        
  11459 ****        65.0000  77.7500  55.7500 Du        
  11460 ****        65.2500  72.0000  50.5000 Du        
  11461 ****        65.2500  72.0000  50.7500 Du        
  11462 ****        65.2500  72.0000  51.0000 Du        
  11463 ****        65.2500  72.2500  50.2500 Du        
  11464 ****        65.2500  72.2500  50.5000 Du        
  11465 ****        65.2500  72.2500  50.7500 Du        
  11466 ****        65.2500  72.2500  51.0000 Du        
  11467 ****        65.2500  72.2500  51.2500 Du        
  11468 ****        65.2500  72.2500  51.5000 Du        
  11469 ****        65.2500  72.5000  50.2500 Du        
  11470 ****        65.2500  72.5000  50.5000 Du        
  11471 ****        65.2500  72.5000  50.7500 Du        
  11472 ****        65.2500  72.5000  51.0000 Du        
  11473 ****        65.2500  72.5000  51.2500 Du        
  11474 ****        65.2500  72.5000  51.5000 Du        
  11475 ****        65.2500  72.7500  50.2500 Du        
  11476 ****        65.2500  72.7500  50.5000 Du        
  11477 ****        65.2500  72.7500  50.7500 Du        
  11478 ****        65.2500  72.7500  51.0000 Du        
  11479 ****        65.2500  72.7500  51.2500 Du        
  11480 ****        65.2500  72.7500  51.5000 Du        
  11481 ****        65.2500  73.0000  50.5000 Du        
  11482 ****        65.2500  73.0000  50.7500 Du        
  11483 ****        65.2500  73.0000  51.0000 Du        
  11484 ****        65.2500  73.0000  51.2500 Du        
  11485 ****        65.2500  73.2500  50.5000 Du        
  11486 ****        65.2500  73.2500  50.7500 Du        
  11487 ****        65.2500  73.2500  51.0000 Du        
  11488 ****        65.2500  73.2500  51.2500 Du        
  11489 ****        65.2500  73.5000  50.5000 Du        
  11490 ****        65.2500  73.5000  50.7500 Du        
  11491 ****        65.2500  73.5000  51.0000 Du        
  11492 ****        65.2500  73.5000  51.2500 Du        
  11493 ****        65.2500  73.7500  50.2500 Du        
  11494 ****        65.2500  73.7500  50.5000 Du        
  11495 ****        65.2500  73.7500  50.7500 Du        
  11496 ****        65.2500  73.7500  51.0000 Du        
  11497 ****        65.2500  73.7500  51.2500 Du        
  11498 ****        65.2500  74.0000  50.2500 Du        
  11499 ****        65.2500  74.0000  50.5000 Du        
  11500 ****        65.2500  74.0000  50.7500 Du        
  11501 ****        65.2500  74.0000  51.0000 Du        
  11502 ****        65.2500  74.0000  51.2500 Du        
  11503 ****        65.2500  74.2500  50.2500 Du        
  11504 ****        65.2500  74.2500  50.5000 Du        
  11505 ****        65.2500  74.2500  50.7500 Du        
  11506 ****        65.2500  74.2500  51.0000 Du        
  11507 ****        65.2500  74.2500  51.2500 Du        
  11508 ****        65.2500  74.5000  50.5000 Du        
  11509 ****        65.2500  74.5000  50.7500 Du        
  11510 ****        65.2500  74.5000  51.0000 Du        
  11511 ****        65.2500  74.5000  51.2500 Du        
  11512 ****        65.2500  74.7500  50.5000 Du        
  11513 ****        65.2500  74.7500  50.7500 Du        
  11514 ****        65.2500  74.7500  51.0000 Du        
  11515 ****        65.2500  74.7500  51.2500 Du        
  11516 ****        65.2500  75.0000  50.5000 Du        
  11517 ****        65.2500  75.0000  50.7500 Du        
  11518 ****        65.2500  75.0000  51.0000 Du        
  11519 ****        65.2500  75.0000  51.2500 Du        
  11520 ****        65.2500  75.0000  51.5000 Du        
  11521 ****        65.2500  75.2500  50.7500 Du        
  11522 ****        65.2500  75.2500  51.0000 Du        
  11523 ****        65.2500  75.2500  51.2500 Du        
  11524 ****        65.2500  75.2500  51.5000 Du        
  11525 ****        65.2500  75.5000  50.7500 Du        
  11526 ****        65.2500  75.5000  51.0000 Du        
  11527 ****        65.2500  75.5000  51.2500 Du        
  11528 ****        65.2500  75.5000  51.5000 Du        
  11529 ****        65.2500  75.5000  51.7500 Du        
  11530 ****        65.2500  75.7500  50.7500 Du        
  11531 ****        65.2500  75.7500  51.0000 Du        
  11532 ****        65.2500  75.7500  51.2500 Du        
  11533 ****        65.2500  75.7500  51.5000 Du        
  11534 ****        65.2500  75.7500  51.7500 Du        
  11535 ****        65.2500  75.7500  52.0000 Du        
  11536 ****        65.2500  76.0000  50.7500 Du        
  11537 ****        65.2500  76.0000  51.0000 Du        
  11538 ****        65.2500  76.0000  51.2500 Du        
  11539 ****        65.2500  76.0000  51.5000 Du        
  11540 ****        65.2500  76.0000  51.7500 Du        
  11541 ****        65.2500  76.0000  52.0000 Du        
  11542 ****        65.2500  76.0000  52.2500 Du        
  11543 ****        65.2500  76.2500  50.7500 Du        
  11544 ****        65.2500  76.2500  51.0000 Du        
  11545 ****        65.2500  76.2500  51.2500 Du        
  11546 ****        65.2500  76.2500  51.5000 Du        
  11547 ****        65.2500  76.2500  51.7500 Du        
  11548 ****        65.2500  76.2500  52.0000 Du        
  11549 ****        65.2500  76.2500  52.2500 Du        
  11550 ****        65.2500  76.2500  52.5000 Du        
  11551 ****        65.2500  76.5000  51.0000 Du        
  11552 ****        65.2500  76.5000  51.2500 Du        
  11553 ****        65.2500  76.5000  51.5000 Du        
  11554 ****        65.2500  76.5000  51.7500 Du        
  11555 ****        65.2500  76.5000  52.0000 Du        
  11556 ****        65.2500  76.5000  52.2500 Du        
  11557 ****        65.2500  76.5000  52.5000 Du        
  11558 ****        65.2500  76.5000  52.7500 Du        
  11559 ****        65.2500  76.5000  53.0000 Du        
  11560 ****        65.2500  76.7500  51.2500 Du        
  11561 ****        65.2500  76.7500  51.5000 Du        
  11562 ****        65.2500  76.7500  51.7500 Du        
  11563 ****        65.2500  76.7500  52.0000 Du        
  11564 ****        65.2500  76.7500  52.2500 Du        
  11565 ****        65.2500  76.7500  52.5000 Du        
  11566 ****        65.2500  76.7500  52.7500 Du        
  11567 ****        65.2500  76.7500  53.0000 Du        
  11568 ****        65.2500  76.7500  53.2500 Du        
  11569 ****        65.2500  76.7500  53.5000 Du        
  11570 ****        65.2500  77.0000  52.0000 Du        
  11571 ****        65.2500  77.0000  52.2500 Du        
  11572 ****        65.2500  77.0000  52.7500 Du        
  11573 ****        65.2500  77.0000  53.0000 Du        
  11574 ****        65.2500  77.0000  53.2500 Du        
  11575 ****        65.2500  77.0000  53.5000 Du        
  11576 ****        65.2500  77.0000  53.7500 Du        
  11577 ****        65.2500  77.0000  54.0000 Du        
  11578 ****        65.2500  77.2500  53.0000 Du        
  11579 ****        65.2500  77.2500  53.2500 Du        
  11580 ****        65.2500  77.2500  53.5000 Du        
  11581 ****        65.2500  77.2500  53.7500 Du        
  11582 ****        65.2500  77.2500  54.0000 Du        
  11583 ****        65.2500  77.2500  54.2500 Du        
  11584 ****        65.2500  77.5000  54.2500 Du        
  11585 ****        65.2500  77.5000  54.5000 Du        
  11586 ****        65.2500  77.5000  54.7500 Du        
  11587 ****        65.5000  72.0000  50.2500 Du        
  11588 ****        65.5000  72.0000  50.5000 Du        
  11589 ****        65.5000  72.0000  50.7500 Du        
  11590 ****        65.5000  72.0000  51.0000 Du        
  11591 ****        65.5000  72.0000  51.2500 Du        
  11592 ****        65.5000  72.2500  50.2500 Du        
  11593 ****        65.5000  72.2500  50.5000 Du        
  11594 ****        65.5000  72.2500  50.7500 Du        
  11595 ****        65.5000  72.2500  51.0000 Du        
  11596 ****        65.5000  72.2500  51.2500 Du        
  11597 ****        65.5000  72.5000  50.2500 Du        
  11598 ****        65.5000  72.5000  50.5000 Du        
  11599 ****        65.5000  72.5000  50.7500 Du        
  11600 ****        65.5000  72.5000  51.0000 Du        
  11601 ****        65.5000  72.5000  51.2500 Du        
  11602 ****        65.5000  72.7500  50.5000 Du        
  11603 ****        65.5000  72.7500  50.7500 Du        
  11604 ****        65.5000  72.7500  51.0000 Du        
  11605 ****        65.5000  72.7500  51.2500 Du        
  11606 ****        65.5000  73.0000  50.5000 Du        
  11607 ****        65.5000  73.0000  50.7500 Du        
  11608 ****        65.5000  73.0000  51.0000 Du        
  11609 ****        65.5000  73.0000  51.2500 Du        
  11610 ****        65.5000  73.2500  50.5000 Du        
  11611 ****        65.5000  73.2500  50.7500 Du        
  11612 ****        65.5000  73.2500  51.0000 Du        
  11613 ****        65.5000  73.2500  51.2500 Du        
  11614 ****        65.5000  73.5000  50.5000 Du        
  11615 ****        65.5000  73.5000  50.7500 Du        
  11616 ****        65.5000  73.5000  51.0000 Du        
  11617 ****        65.5000  73.5000  51.2500 Du        
  11618 ****        65.5000  73.7500  50.2500 Du        
  11619 ****        65.5000  73.7500  50.5000 Du        
  11620 ****        65.5000  73.7500  50.7500 Du        
  11621 ****        65.5000  73.7500  51.0000 Du        
  11622 ****        65.5000  73.7500  51.2500 Du        
  11623 ****        65.5000  74.0000  50.2500 Du        
  11624 ****        65.5000  74.0000  50.5000 Du        
  11625 ****        65.5000  74.0000  50.7500 Du        
  11626 ****        65.5000  74.0000  51.0000 Du        
  11627 ****        65.5000  74.0000  51.2500 Du        
  11628 ****        65.5000  74.2500  50.2500 Du        
  11629 ****        65.5000  74.2500  50.5000 Du        
  11630 ****        65.5000  74.2500  50.7500 Du        
  11631 ****        65.5000  74.2500  51.0000 Du        
  11632 ****        65.5000  74.2500  51.2500 Du        
  11633 ****        65.5000  74.5000  50.2500 Du        
  11634 ****        65.5000  74.5000  50.5000 Du        
  11635 ****        65.5000  74.5000  50.7500 Du        
  11636 ****        65.5000  74.5000  51.0000 Du        
  11637 ****        65.5000  74.5000  51.2500 Du        
  11638 ****        65.5000  74.7500  50.2500 Du        
  11639 ****        65.5000  74.7500  50.5000 Du        
  11640 ****        65.5000  74.7500  50.7500 Du        
  11641 ****        65.5000  74.7500  51.0000 Du        
  11642 ****        65.5000  74.7500  51.2500 Du        
  11643 ****        65.5000  75.0000  50.5000 Du        
  11644 ****        65.5000  75.0000  50.7500 Du        
  11645 ****        65.5000  75.0000  51.0000 Du        
  11646 ****        65.5000  75.0000  51.2500 Du        
  11647 ****        65.5000  75.0000  51.5000 Du        
  11648 ****        65.5000  75.2500  50.5000 Du        
  11649 ****        65.5000  75.2500  50.7500 Du        
  11650 ****        65.5000  75.2500  51.0000 Du        
  11651 ****        65.5000  75.2500  51.2500 Du        
  11652 ****        65.5000  75.2500  51.5000 Du        
  11653 ****        65.5000  75.5000  50.5000 Du        
  11654 ****        65.5000  75.5000  50.7500 Du        
  11655 ****        65.5000  75.5000  51.0000 Du        
  11656 ****        65.5000  75.5000  51.2500 Du        
  11657 ****        65.5000  75.5000  51.5000 Du        
  11658 ****        65.5000  75.5000  51.7500 Du        
  11659 ****        65.5000  75.7500  50.5000 Du        
  11660 ****        65.5000  75.7500  50.7500 Du        
  11661 ****        65.5000  75.7500  51.0000 Du        
  11662 ****        65.5000  75.7500  51.2500 Du        
  11663 ****        65.5000  75.7500  51.5000 Du        
  11664 ****        65.5000  75.7500  51.7500 Du        
  11665 ****        65.5000  76.0000  50.7500 Du        
  11666 ****        65.5000  76.0000  51.0000 Du        
  11667 ****        65.5000  76.0000  51.2500 Du        
  11668 ****        65.5000  76.0000  51.5000 Du        
  11669 ****        65.5000  76.0000  51.7500 Du        
  11670 ****        65.5000  76.0000  52.0000 Du        
  11671 ****        65.5000  76.2500  50.7500 Du        
  11672 ****        65.5000  76.2500  51.0000 Du        
  11673 ****        65.5000  76.2500  51.2500 Du        
  11674 ****        65.5000  76.2500  51.5000 Du        
  11675 ****        65.5000  76.2500  51.7500 Du        
  11676 ****        65.5000  76.2500  52.0000 Du        
  11677 ****        65.5000  76.5000  51.0000 Du        
  11678 ****        65.5000  76.5000  51.2500 Du        
  11679 ****        65.5000  76.5000  51.5000 Du        
  11680 ****        65.5000  76.5000  51.7500 Du        
  11681 ****        65.7500  65.0000  64.7500 Du        
  11682 ****        65.7500  71.7500  50.5000 Du        
  11683 ****        65.7500  71.7500  50.7500 Du        
  11684 ****        65.7500  71.7500  51.0000 Du        
  11685 ****        65.7500  72.0000  50.2500 Du        
  11686 ****        65.7500  72.0000  50.5000 Du        
  11687 ****        65.7500  72.0000  50.7500 Du        
  11688 ****        65.7500  72.0000  51.0000 Du        
  11689 ****        65.7500  72.0000  51.2500 Du        
  11690 ****        65.7500  72.2500  50.2500 Du        
  11691 ****        65.7500  72.2500  50.5000 Du        
  11692 ****        65.7500  72.2500  50.7500 Du        
  11693 ****        65.7500  72.2500  51.0000 Du        
  11694 ****        65.7500  72.2500  51.2500 Du        
  11695 ****        65.7500  72.5000  50.2500 Du        
  11696 ****        65.7500  72.5000  50.5000 Du        
  11697 ****        65.7500  72.5000  50.7500 Du        
  11698 ****        65.7500  72.5000  51.0000 Du        
  11699 ****        65.7500  72.5000  51.2500 Du        
  11700 ****        65.7500  72.7500  50.5000 Du        
  11701 ****        65.7500  72.7500  50.7500 Du        
  11702 ****        65.7500  72.7500  51.0000 Du        
  11703 ****        65.7500  72.7500  51.2500 Du        
  11704 ****        65.7500  73.0000  50.5000 Du        
  11705 ****        65.7500  73.0000  50.7500 Du        
  11706 ****        65.7500  73.0000  51.0000 Du        
  11707 ****        65.7500  73.0000  51.2500 Du        
  11708 ****        65.7500  73.2500  50.5000 Du        
  11709 ****        65.7500  73.2500  50.7500 Du        
  11710 ****        65.7500  73.2500  51.0000 Du        
  11711 ****        65.7500  73.2500  51.2500 Du        
  11712 ****        65.7500  73.5000  50.5000 Du        
  11713 ****        65.7500  73.5000  50.7500 Du        
  11714 ****        65.7500  73.5000  51.0000 Du        
  11715 ****        65.7500  73.5000  51.2500 Du        
  11716 ****        65.7500  73.7500  50.2500 Du        
  11717 ****        65.7500  73.7500  50.5000 Du        
  11718 ****        65.7500  73.7500  50.7500 Du        
  11719 ****        65.7500  73.7500  51.0000 Du        
  11720 ****        65.7500  73.7500  51.2500 Du        
  11721 ****        65.7500  74.0000  50.2500 Du        
  11722 ****        65.7500  74.0000  50.5000 Du        
  11723 ****        65.7500  74.0000  50.7500 Du        
  11724 ****        65.7500  74.0000  51.0000 Du        
  11725 ****        65.7500  74.0000  51.2500 Du        
  11726 ****        65.7500  74.2500  50.2500 Du        
  11727 ****        65.7500  74.2500  50.5000 Du        
  11728 ****        65.7500  74.2500  50.7500 Du        
  11729 ****        65.7500  74.2500  51.0000 Du        
  11730 ****        65.7500  74.2500  51.2500 Du        
  11731 ****        65.7500  74.5000  50.2500 Du        
  11732 ****        65.7500  74.5000  50.5000 Du        
  11733 ****        65.7500  74.5000  50.7500 Du        
  11734 ****        65.7500  74.5000  51.0000 Du        
  11735 ****        65.7500  74.5000  51.2500 Du        
  11736 ****        65.7500  74.7500  50.2500 Du        
  11737 ****        65.7500  74.7500  50.5000 Du        
  11738 ****        65.7500  74.7500  50.7500 Du        
  11739 ****        65.7500  74.7500  51.0000 Du        
  11740 ****        65.7500  74.7500  51.2500 Du        
  11741 ****        65.7500  75.0000  50.2500 Du        
  11742 ****        65.7500  75.0000  50.5000 Du        
  11743 ****        65.7500  75.0000  50.7500 Du        
  11744 ****        65.7500  75.0000  51.0000 Du        
  11745 ****        65.7500  75.0000  51.2500 Du        
  11746 ****        65.7500  75.2500  50.2500 Du        
  11747 ****        65.7500  75.2500  50.5000 Du        
  11748 ****        65.7500  75.2500  50.7500 Du        
  11749 ****        65.7500  75.2500  51.0000 Du        
  11750 ****        65.7500  75.2500  51.2500 Du        
  11751 ****        65.7500  75.2500  51.5000 Du        
  11752 ****        65.7500  75.5000  50.5000 Du        
  11753 ****        65.7500  75.5000  50.7500 Du        
  11754 ****        65.7500  75.5000  51.0000 Du        
  11755 ****        65.7500  75.5000  51.2500 Du        
  11756 ****        65.7500  75.5000  51.5000 Du        
  11757 ****        65.7500  75.7500  50.5000 Du        
  11758 ****        65.7500  75.7500  50.7500 Du        
  11759 ****        65.7500  75.7500  51.0000 Du        
  11760 ****        65.7500  75.7500  51.2500 Du        
  11761 ****        65.7500  75.7500  51.5000 Du        
  11762 ****        65.7500  76.0000  50.5000 Du        
  11763 ****        65.7500  76.0000  50.7500 Du        
  11764 ****        65.7500  76.0000  51.0000 Du        
  11765 ****        65.7500  76.0000  51.2500 Du        
  11766 ****        65.7500  76.0000  51.5000 Du        
  11767 ****        65.7500  76.2500  50.7500 Du        
  11768 ****        65.7500  76.2500  51.0000 Du        
  11769 ****        65.7500  76.2500  51.2500 Du        
  11770 ****        65.7500  76.2500  51.5000 Du        
  11771 ****        66.0000  64.7500  64.5000 Du        
  11772 ****        66.0000  64.7500  64.7500 Du        
  11773 ****        66.0000  65.0000  64.5000 Du        
  11774 ****        66.0000  65.0000  64.7500 Du        
  11775 ****        66.0000  65.0000  65.0000 Du        
  11776 ****        66.0000  65.2500  64.5000 Du        
  11777 ****        66.0000  65.2500  64.7500 Du        
  11778 ****        66.0000  65.2500  65.0000 Du        
  11779 ****        66.0000  65.5000  64.7500 Du        
  11780 ****        66.0000  65.5000  65.0000 Du        
  11781 ****        66.0000  71.7500  50.2500 Du        
  11782 ****        66.0000  71.7500  50.5000 Du        
  11783 ****        66.0000  71.7500  50.7500 Du        
  11784 ****        66.0000  71.7500  51.0000 Du        
  11785 ****        66.0000  71.7500  51.2500 Du        
  11786 ****        66.0000  72.0000  50.2500 Du        
  11787 ****        66.0000  72.0000  50.5000 Du        
  11788 ****        66.0000  72.0000  50.7500 Du        
  11789 ****        66.0000  72.0000  51.0000 Du        
  11790 ****        66.0000  72.0000  51.2500 Du        
  11791 ****        66.0000  72.2500  50.2500 Du        
  11792 ****        66.0000  72.2500  50.5000 Du        
  11793 ****        66.0000  72.2500  50.7500 Du        
  11794 ****        66.0000  72.2500  51.0000 Du        
  11795 ****        66.0000  72.2500  51.2500 Du        
  11796 ****        66.0000  72.5000  50.2500 Du        
  11797 ****        66.0000  72.5000  50.5000 Du        
  11798 ****        66.0000  72.5000  50.7500 Du        
  11799 ****        66.0000  72.5000  51.0000 Du        
  11800 ****        66.0000  72.5000  51.2500 Du        
  11801 ****        66.0000  72.7500  50.5000 Du        
  11802 ****        66.0000  72.7500  50.7500 Du        
  11803 ****        66.0000  72.7500  51.0000 Du        
  11804 ****        66.0000  72.7500  51.2500 Du        
  11805 ****        66.0000  73.0000  50.5000 Du        
  11806 ****        66.0000  73.0000  50.7500 Du        
  11807 ****        66.0000  73.0000  51.0000 Du        
  11808 ****        66.0000  73.0000  51.2500 Du        
  11809 ****        66.0000  73.2500  50.5000 Du        
  11810 ****        66.0000  73.2500  50.7500 Du        
  11811 ****        66.0000  73.2500  51.0000 Du        
  11812 ****        66.0000  73.5000  50.5000 Du        
  11813 ****        66.0000  73.5000  50.7500 Du        
  11814 ****        66.0000  73.5000  51.0000 Du        
  11815 ****        66.0000  73.7500  50.2500 Du        
  11816 ****        66.0000  73.7500  50.5000 Du        
  11817 ****        66.0000  73.7500  50.7500 Du        
  11818 ****        66.0000  73.7500  51.0000 Du        
  11819 ****        66.0000  74.0000  50.2500 Du        
  11820 ****        66.0000  74.0000  50.5000 Du        
  11821 ****        66.0000  74.0000  50.7500 Du        
  11822 ****        66.0000  74.0000  51.0000 Du        
  11823 ****        66.0000  74.2500  50.2500 Du        
  11824 ****        66.0000  74.2500  50.5000 Du        
  11825 ****        66.0000  74.2500  50.7500 Du        
  11826 ****        66.0000  74.2500  51.0000 Du        
  11827 ****        66.0000  74.5000  50.2500 Du        
  11828 ****        66.0000  74.5000  50.5000 Du        
  11829 ****        66.0000  74.5000  50.7500 Du        
  11830 ****        66.0000  74.5000  51.0000 Du        
  11831 ****        66.0000  74.5000  51.2500 Du        
  11832 ****        66.0000  74.7500  50.2500 Du        
  11833 ****        66.0000  74.7500  50.5000 Du        
  11834 ****        66.0000  74.7500  50.7500 Du        
  11835 ****        66.0000  74.7500  51.0000 Du        
  11836 ****        66.0000  74.7500  51.2500 Du        
  11837 ****        66.0000  75.0000  50.2500 Du        
  11838 ****        66.0000  75.0000  50.5000 Du        
  11839 ****        66.0000  75.0000  50.7500 Du        
  11840 ****        66.0000  75.0000  51.0000 Du        
  11841 ****        66.0000  75.0000  51.2500 Du        
  11842 ****        66.0000  75.2500  50.2500 Du        
  11843 ****        66.0000  75.2500  50.5000 Du        
  11844 ****        66.0000  75.2500  50.7500 Du        
  11845 ****        66.0000  75.2500  51.0000 Du        
  11846 ****        66.0000  75.2500  51.2500 Du        
  11847 ****        66.0000  75.5000  50.2500 Du        
  11848 ****        66.0000  75.5000  50.5000 Du        
  11849 ****        66.0000  75.5000  50.7500 Du        
  11850 ****        66.0000  75.5000  51.0000 Du        
  11851 ****        66.0000  75.5000  51.2500 Du        
  11852 ****        66.0000  75.7500  50.5000 Du        
  11853 ****        66.0000  75.7500  50.7500 Du        
  11854 ****        66.0000  75.7500  51.0000 Du        
  11855 ****        66.0000  75.7500  51.2500 Du        
  11856 ****        66.0000  76.0000  50.7500 Du        
  11857 ****        66.0000  76.0000  51.0000 Du        
  11858 ****        66.0000  76.0000  51.2500 Du        
  11859 ****        66.2500  64.7500  64.2500 Du        
  11860 ****        66.2500  64.7500  64.5000 Du        
  11861 ****        66.2500  64.7500  64.7500 Du        
  11862 ****        66.2500  65.0000  64.2500 Du        
  11863 ****        66.2500  65.0000  64.5000 Du        
  11864 ****        66.2500  65.0000  64.7500 Du        
  11865 ****        66.2500  65.2500  64.5000 Du        
  11866 ****        66.2500  65.2500  64.7500 Du        
  11867 ****        66.2500  65.2500  65.0000 Du        
  11868 ****        66.2500  65.5000  64.5000 Du        
  11869 ****        66.2500  65.5000  64.7500 Du        
  11870 ****        66.2500  65.5000  65.0000 Du        
  11871 ****        66.2500  65.7500  64.7500 Du        
  11872 ****        66.2500  65.7500  65.0000 Du        
  11873 ****        66.2500  66.0000  64.7500 Du        
  11874 ****        66.2500  71.5000  50.5000 Du        
  11875 ****        66.2500  71.5000  50.7500 Du        
  11876 ****        66.2500  71.5000  51.0000 Du        
  11877 ****        66.2500  71.7500  50.5000 Du        
  11878 ****        66.2500  71.7500  50.7500 Du        
  11879 ****        66.2500  71.7500  51.0000 Du        
  11880 ****        66.2500  71.7500  51.2500 Du        
  11881 ****        66.2500  72.0000  50.2500 Du        
  11882 ****        66.2500  72.0000  50.5000 Du        
  11883 ****        66.2500  72.0000  50.7500 Du        
  11884 ****        66.2500  72.0000  51.0000 Du        
  11885 ****        66.2500  72.0000  51.2500 Du        
  11886 ****        66.2500  72.2500  50.5000 Du        
  11887 ****        66.2500  72.2500  50.7500 Du        
  11888 ****        66.2500  72.2500  51.0000 Du        
  11889 ****        66.2500  72.2500  51.2500 Du        
  11890 ****        66.2500  72.5000  50.5000 Du        
  11891 ****        66.2500  72.5000  50.7500 Du        
  11892 ****        66.2500  72.5000  51.0000 Du        
  11893 ****        66.2500  72.5000  51.2500 Du        
  11894 ****        66.2500  72.7500  50.5000 Du        
  11895 ****        66.2500  72.7500  50.7500 Du        
  11896 ****        66.2500  72.7500  51.0000 Du        
  11897 ****        66.2500  72.7500  51.2500 Du        
  11898 ****        66.2500  73.0000  50.5000 Du        
  11899 ****        66.2500  73.0000  50.7500 Du        
  11900 ****        66.2500  73.0000  51.0000 Du        
  11901 ****        66.2500  73.2500  50.5000 Du        
  11902 ****        66.2500  73.2500  50.7500 Du        
  11903 ****        66.2500  73.2500  51.0000 Du        
  11904 ****        66.2500  73.5000  50.5000 Du        
  11905 ****        66.2500  73.5000  50.7500 Du        
  11906 ****        66.2500  73.5000  51.0000 Du        
  11907 ****        66.2500  73.7500  50.2500 Du        
  11908 ****        66.2500  73.7500  50.5000 Du        
  11909 ****        66.2500  73.7500  50.7500 Du        
  11910 ****        66.2500  73.7500  51.0000 Du        
  11911 ****        66.2500  74.0000  50.2500 Du        
  11912 ****        66.2500  74.0000  50.5000 Du        
  11913 ****        66.2500  74.0000  50.7500 Du        
  11914 ****        66.2500  74.0000  51.0000 Du        
  11915 ****        66.2500  74.2500  50.2500 Du        
  11916 ****        66.2500  74.2500  50.5000 Du        
  11917 ****        66.2500  74.2500  50.7500 Du        
  11918 ****        66.2500  74.2500  51.0000 Du        
  11919 ****        66.2500  74.5000  50.0000 Du        
  11920 ****        66.2500  74.5000  50.2500 Du        
  11921 ****        66.2500  74.5000  50.5000 Du        
  11922 ****        66.2500  74.5000  50.7500 Du        
  11923 ****        66.2500  74.5000  51.0000 Du        
  11924 ****        66.2500  74.7500  50.0000 Du        
  11925 ****        66.2500  74.7500  50.2500 Du        
  11926 ****        66.2500  74.7500  50.5000 Du        
  11927 ****        66.2500  74.7500  50.7500 Du        
  11928 ****        66.2500  74.7500  51.0000 Du        
  11929 ****        66.2500  74.7500  51.2500 Du        
  11930 ****        66.2500  75.0000  50.0000 Du        
  11931 ****        66.2500  75.0000  50.2500 Du        
  11932 ****        66.2500  75.0000  50.5000 Du        
  11933 ****        66.2500  75.0000  50.7500 Du        
  11934 ****        66.2500  75.0000  51.0000 Du        
  11935 ****        66.2500  75.0000  51.2500 Du        
  11936 ****        66.2500  75.2500  50.2500 Du        
  11937 ****        66.2500  75.2500  50.5000 Du        
  11938 ****        66.2500  75.2500  50.7500 Du        
  11939 ****        66.2500  75.2500  51.0000 Du        
  11940 ****        66.2500  75.2500  51.2500 Du        
  11941 ****        66.2500  75.5000  50.2500 Du        
  11942 ****        66.2500  75.5000  50.5000 Du        
  11943 ****        66.2500  75.5000  50.7500 Du        
  11944 ****        66.2500  75.5000  51.0000 Du        
  11945 ****        66.2500  75.5000  51.2500 Du        
  11946 ****        66.2500  75.7500  50.7500 Du        
  11947 ****        66.2500  75.7500  51.0000 Du        
  11948 ****        66.5000  64.7500  64.2500 Du        
  11949 ****        66.5000  64.7500  64.5000 Du        
  11950 ****        66.5000  65.0000  64.2500 Du        
  11951 ****        66.5000  65.0000  64.5000 Du        
  11952 ****        66.5000  65.0000  64.7500 Du        
  11953 ****        66.5000  65.2500  64.2500 Du        
  11954 ****        66.5000  65.2500  64.5000 Du        
  11955 ****        66.5000  65.2500  64.7500 Du        
  11956 ****        66.5000  65.5000  64.2500 Du        
  11957 ****        66.5000  65.5000  64.5000 Du        
  11958 ****        66.5000  65.5000  64.7500 Du        
  11959 ****        66.5000  65.5000  65.0000 Du        
  11960 ****        66.5000  65.7500  64.2500 Du        
  11961 ****        66.5000  65.7500  64.5000 Du        
  11962 ****        66.5000  65.7500  64.7500 Du        
  11963 ****        66.5000  65.7500  65.0000 Du        
  11964 ****        66.5000  66.0000  64.5000 Du        
  11965 ****        66.5000  66.0000  64.7500 Du        
  11966 ****        66.5000  66.0000  65.0000 Du        
  11967 ****        66.5000  71.2500  51.0000 Du        
  11968 ****        66.5000  71.5000  50.7500 Du        
  11969 ****        66.5000  71.5000  51.0000 Du        
  11970 ****        66.5000  71.5000  51.2500 Du        
  11971 ****        66.5000  71.7500  50.5000 Du        
  11972 ****        66.5000  71.7500  50.7500 Du        
  11973 ****        66.5000  71.7500  51.0000 Du        
  11974 ****        66.5000  71.7500  51.2500 Du        
  11975 ****        66.5000  72.0000  50.5000 Du        
  11976 ****        66.5000  72.0000  50.7500 Du        
  11977 ****        66.5000  72.0000  51.0000 Du        
  11978 ****        66.5000  72.0000  51.2500 Du        
  11979 ****        66.5000  72.2500  50.5000 Du        
  11980 ****        66.5000  72.2500  50.7500 Du        
  11981 ****        66.5000  72.2500  51.0000 Du        
  11982 ****        66.5000  72.2500  51.2500 Du        
  11983 ****        66.5000  72.5000  50.5000 Du        
  11984 ****        66.5000  72.5000  50.7500 Du        
  11985 ****        66.5000  72.5000  51.0000 Du        
  11986 ****        66.5000  72.7500  50.5000 Du        
  11987 ****        66.5000  72.7500  50.7500 Du        
  11988 ****        66.5000  72.7500  51.0000 Du        
  11989 ****        66.5000  73.0000  50.5000 Du        
  11990 ****        66.5000  73.0000  50.7500 Du        
  11991 ****        66.5000  73.0000  51.0000 Du        
  11992 ****        66.5000  73.2500  50.5000 Du        
  11993 ****        66.5000  73.2500  50.7500 Du        
  11994 ****        66.5000  73.2500  51.0000 Du        
  11995 ****        66.5000  73.5000  50.5000 Du        
  11996 ****        66.5000  73.5000  50.7500 Du        
  11997 ****        66.5000  73.5000  51.0000 Du        
  11998 ****        66.5000  73.7500  50.2500 Du        
  11999 ****        66.5000  73.7500  50.5000 Du        
  12000 ****        66.5000  73.7500  50.7500 Du        
  12001 ****        66.5000  73.7500  51.0000 Du        
  12002 ****        66.5000  74.0000  50.2500 Du        
  12003 ****        66.5000  74.0000  50.5000 Du        
  12004 ****        66.5000  74.0000  50.7500 Du        
  12005 ****        66.5000  74.0000  51.0000 Du        
  12006 ****        66.5000  74.2500  50.2500 Du        
  12007 ****        66.5000  74.2500  50.5000 Du        
  12008 ****        66.5000  74.2500  50.7500 Du        
  12009 ****        66.5000  74.2500  51.0000 Du        
  12010 ****        66.5000  74.5000  50.0000 Du        
  12011 ****        66.5000  74.5000  50.2500 Du        
  12012 ****        66.5000  74.5000  50.5000 Du        
  12013 ****        66.5000  74.5000  50.7500 Du        
  12014 ****        66.5000  74.5000  51.0000 Du        
  12015 ****        66.5000  74.7500  50.0000 Du        
  12016 ****        66.5000  74.7500  50.2500 Du        
  12017 ****        66.5000  74.7500  50.5000 Du        
  12018 ****        66.5000  74.7500  50.7500 Du        
  12019 ****        66.5000  74.7500  51.0000 Du        
  12020 ****        66.5000  75.0000  50.0000 Du        
  12021 ****        66.5000  75.0000  50.2500 Du        
  12022 ****        66.5000  75.0000  50.5000 Du        
  12023 ****        66.5000  75.0000  50.7500 Du        
  12024 ****        66.5000  75.0000  51.0000 Du        
  12025 ****        66.5000  75.2500  50.2500 Du        
  12026 ****        66.5000  75.2500  50.5000 Du        
  12027 ****        66.5000  75.2500  50.7500 Du        
  12028 ****        66.5000  75.2500  51.0000 Du        
  12029 ****        66.5000  75.5000  50.5000 Du        
  12030 ****        66.5000  75.5000  50.7500 Du        
  12031 ****        66.7500  64.7500  64.0000 Du        
  12032 ****        66.7500  64.7500  64.2500 Du        
  12033 ****        66.7500  65.0000  64.0000 Du        
  12034 ****        66.7500  65.0000  64.2500 Du        
  12035 ****        66.7500  65.0000  64.5000 Du        
  12036 ****        66.7500  65.2500  64.0000 Du        
  12037 ****        66.7500  65.2500  64.2500 Du        
  12038 ****        66.7500  65.2500  64.5000 Du        
  12039 ****        66.7500  65.2500  64.7500 Du        
  12040 ****        66.7500  65.5000  64.0000 Du        
  12041 ****        66.7500  65.5000  64.2500 Du        
  12042 ****        66.7500  65.5000  64.5000 Du        
  12043 ****        66.7500  65.5000  64.7500 Du        
  12044 ****        66.7500  65.7500  64.0000 Du        
  12045 ****        66.7500  65.7500  64.2500 Du        
  12046 ****        66.7500  65.7500  64.5000 Du        
  12047 ****        66.7500  65.7500  64.7500 Du        
  12048 ****        66.7500  65.7500  65.0000 Du        
  12049 ****        66.7500  66.0000  64.0000 Du        
  12050 ****        66.7500  66.0000  64.2500 Du        
  12051 ****        66.7500  66.0000  64.5000 Du        
  12052 ****        66.7500  66.0000  64.7500 Du        
  12053 ****        66.7500  66.2500  64.2500 Du        
  12054 ****        66.7500  66.2500  64.5000 Du        
  12055 ****        66.7500  71.0000  51.0000 Du        
  12056 ****        66.7500  71.0000  51.2500 Du        
  12057 ****        66.7500  71.2500  50.7500 Du        
  12058 ****        66.7500  71.2500  51.0000 Du        
  12059 ****        66.7500  71.2500  51.2500 Du        
  12060 ****        66.7500  71.5000  50.7500 Du        
  12061 ****        66.7500  71.5000  51.0000 Du        
  12062 ****        66.7500  71.5000  51.2500 Du        
  12063 ****        66.7500  71.7500  50.7500 Du        
  12064 ****        66.7500  71.7500  51.0000 Du        
  12065 ****        66.7500  71.7500  51.2500 Du        
  12066 ****        66.7500  72.0000  50.7500 Du        
  12067 ****        66.7500  72.0000  51.0000 Du        
  12068 ****        66.7500  72.0000  51.2500 Du        
  12069 ****        66.7500  72.2500  50.7500 Du        
  12070 ****        66.7500  72.2500  51.0000 Du        
  12071 ****        66.7500  72.2500  51.2500 Du        
  12072 ****        66.7500  72.5000  50.7500 Du        
  12073 ****        66.7500  72.5000  51.0000 Du        
  12074 ****        66.7500  72.7500  50.5000 Du        
  12075 ****        66.7500  72.7500  50.7500 Du        
  12076 ****        66.7500  72.7500  51.0000 Du        
  12077 ****        66.7500  73.0000  50.5000 Du        
  12078 ****        66.7500  73.0000  50.7500 Du        
  12079 ****        66.7500  73.0000  51.0000 Du        
  12080 ****        66.7500  73.2500  50.5000 Du        
  12081 ****        66.7500  73.2500  50.7500 Du        
  12082 ****        66.7500  73.2500  51.0000 Du        
  12083 ****        66.7500  73.5000  50.5000 Du        
  12084 ****        66.7500  73.5000  50.7500 Du        
  12085 ****        66.7500  73.5000  51.0000 Du        
  12086 ****        66.7500  73.7500  50.2500 Du        
  12087 ****        66.7500  73.7500  50.5000 Du        
  12088 ****        66.7500  73.7500  50.7500 Du        
  12089 ****        66.7500  73.7500  51.0000 Du        
  12090 ****        66.7500  74.0000  50.2500 Du        
  12091 ****        66.7500  74.0000  50.5000 Du        
  12092 ****        66.7500  74.0000  50.7500 Du        
  12093 ****        66.7500  74.0000  51.0000 Du        
  12094 ****        66.7500  74.2500  50.0000 Du        
  12095 ****        66.7500  74.2500  50.2500 Du        
  12096 ****        66.7500  74.2500  50.5000 Du        
  12097 ****        66.7500  74.2500  50.7500 Du        
  12098 ****        66.7500  74.2500  51.0000 Du        
  12099 ****        66.7500  74.5000  50.0000 Du        
  12100 ****        66.7500  74.5000  50.2500 Du        
  12101 ****        66.7500  74.5000  50.5000 Du        
  12102 ****        66.7500  74.5000  50.7500 Du        
  12103 ****        66.7500  74.7500  50.0000 Du        
  12104 ****        66.7500  74.7500  50.2500 Du        
  12105 ****        66.7500  74.7500  50.5000 Du        
  12106 ****        66.7500  74.7500  50.7500 Du        
  12107 ****        66.7500  75.0000  50.0000 Du        
  12108 ****        66.7500  75.0000  50.2500 Du        
  12109 ****        66.7500  75.0000  50.5000 Du        
  12110 ****        66.7500  75.0000  50.7500 Du        
  12111 ****        66.7500  75.2500  50.5000 Du        
  12112 ****        67.0000  64.7500  63.7500 Du        
  12113 ****        67.0000  64.7500  64.0000 Du        
  12114 ****        67.0000  64.7500  64.2500 Du        
  12115 ****        67.0000  65.0000  63.7500 Du        
  12116 ****        67.0000  65.0000  64.0000 Du        
  12117 ****        67.0000  65.0000  64.2500 Du        
  12118 ****        67.0000  65.0000  64.5000 Du        
  12119 ****        67.0000  65.2500  63.5000 Du        
  12120 ****        67.0000  65.2500  63.7500 Du        
  12121 ****        67.0000  65.2500  64.0000 Du        
  12122 ****        67.0000  65.2500  64.2500 Du        
  12123 ****        67.0000  65.2500  64.5000 Du        
  12124 ****        67.0000  65.5000  63.7500 Du        
  12125 ****        67.0000  65.5000  64.0000 Du        
  12126 ****        67.0000  65.5000  64.2500 Du        
  12127 ****        67.0000  65.5000  64.5000 Du        
  12128 ****        67.0000  65.5000  64.7500 Du        
  12129 ****        67.0000  65.7500  63.7500 Du        
  12130 ****        67.0000  65.7500  64.0000 Du        
  12131 ****        67.0000  65.7500  64.2500 Du        
  12132 ****        67.0000  65.7500  64.5000 Du        
  12133 ****        67.0000  65.7500  64.7500 Du        
  12134 ****        67.0000  66.0000  63.7500 Du        
  12135 ****        67.0000  66.0000  64.0000 Du        
  12136 ****        67.0000  66.0000  64.2500 Du        
  12137 ****        67.0000  66.0000  64.5000 Du        
  12138 ****        67.0000  66.0000  64.7500 Du        
  12139 ****        67.0000  66.2500  63.7500 Du        
  12140 ****        67.0000  66.2500  64.0000 Du        
  12141 ****        67.0000  66.2500  64.2500 Du        
  12142 ****        67.0000  67.2500  51.7500 Du        
  12143 ****        67.0000  67.5000  51.5000 Du        
  12144 ****        67.0000  67.5000  51.7500 Du        
  12145 ****        67.0000  67.7500  51.5000 Du        
  12146 ****        67.0000  67.7500  51.7500 Du        
  12147 ****        67.0000  67.7500  52.0000 Du        
  12148 ****        67.0000  68.0000  51.5000 Du        
  12149 ****        67.0000  68.0000  51.7500 Du        
  12150 ****        67.0000  68.0000  52.0000 Du        
  12151 ****        67.0000  68.2500  51.7500 Du        
  12152 ****        67.0000  68.2500  52.0000 Du        
  12153 ****        67.0000  68.2500  52.2500 Du        
  12154 ****        67.0000  68.5000  51.7500 Du        
  12155 ****        67.0000  68.5000  52.0000 Du        
  12156 ****        67.0000  68.5000  52.2500 Du        
  12157 ****        67.0000  68.7500  51.7500 Du        
  12158 ****        67.0000  68.7500  52.0000 Du        
  12159 ****        67.0000  68.7500  52.2500 Du        
  12160 ****        67.0000  68.7500  52.5000 Du        
  12161 ****        67.0000  69.0000  51.7500 Du        
  12162 ****        67.0000  69.0000  52.0000 Du        
  12163 ****        67.0000  69.0000  52.2500 Du        
  12164 ****        67.0000  69.0000  52.5000 Du        
  12165 ****        67.0000  69.0000  52.7500 Du        
  12166 ****        67.0000  69.2500  52.0000 Du        
  12167 ****        67.0000  69.2500  52.2500 Du        
  12168 ****        67.0000  69.2500  52.5000 Du        
  12169 ****        67.0000  69.2500  52.7500 Du        
  12170 ****        67.0000  69.5000  52.0000 Du        
  12171 ****        67.0000  69.5000  52.2500 Du        
  12172 ****        67.0000  69.5000  52.5000 Du        
  12173 ****        67.0000  69.5000  52.7500 Du        
  12174 ****        67.0000  69.7500  51.7500 Du        
  12175 ****        67.0000  69.7500  52.0000 Du        
  12176 ****        67.0000  69.7500  52.2500 Du        
  12177 ****        67.0000  69.7500  52.5000 Du        
  12178 ****        67.0000  69.7500  52.7500 Du        
  12179 ****        67.0000  70.0000  51.7500 Du        
  12180 ****        67.0000  70.0000  52.0000 Du        
  12181 ****        67.0000  70.0000  52.2500 Du        
  12182 ****        67.0000  70.0000  52.5000 Du        
  12183 ****        67.0000  70.2500  51.5000 Du        
  12184 ****        67.0000  70.2500  51.7500 Du        
  12185 ****        67.0000  70.2500  52.0000 Du        
  12186 ****        67.0000  70.2500  52.2500 Du        
  12187 ****        67.0000  70.5000  51.2500 Du        
  12188 ****        67.0000  70.5000  51.5000 Du        
  12189 ****        67.0000  70.5000  51.7500 Du        
  12190 ****        67.0000  70.7500  51.2500 Du        
  12191 ****        67.0000  70.7500  51.5000 Du        
  12192 ****        67.0000  70.7500  51.7500 Du        
  12193 ****        67.0000  71.0000  51.0000 Du        
  12194 ****        67.0000  71.0000  51.2500 Du        
  12195 ****        67.0000  71.0000  51.5000 Du        
  12196 ****        67.0000  71.2500  51.0000 Du        
  12197 ****        67.0000  71.2500  51.2500 Du        
  12198 ****        67.0000  71.2500  51.5000 Du        
  12199 ****        67.0000  71.5000  50.7500 Du        
  12200 ****        67.0000  71.5000  51.0000 Du        
  12201 ****        67.0000  71.5000  51.2500 Du        
  12202 ****        67.0000  71.7500  50.7500 Du        
  12203 ****        67.0000  71.7500  51.0000 Du        
  12204 ****        67.0000  71.7500  51.2500 Du        
  12205 ****        67.0000  72.0000  50.7500 Du        
  12206 ****        67.0000  72.0000  51.0000 Du        
  12207 ****        67.0000  72.0000  51.2500 Du        
  12208 ****        67.0000  72.2500  50.7500 Du        
  12209 ****        67.0000  72.2500  51.0000 Du        
  12210 ****        67.0000  72.2500  51.2500 Du        
  12211 ****        67.0000  72.5000  50.7500 Du        
  12212 ****        67.0000  72.5000  51.0000 Du        
  12213 ****        67.0000  72.7500  50.7500 Du        
  12214 ****        67.0000  72.7500  51.0000 Du        
  12215 ****        67.0000  73.0000  50.7500 Du        
  12216 ****        67.0000  73.0000  51.0000 Du        
  12217 ****        67.0000  73.2500  50.5000 Du        
  12218 ****        67.0000  73.2500  50.7500 Du        
  12219 ****        67.0000  73.2500  51.0000 Du        
  12220 ****        67.0000  73.5000  50.5000 Du        
  12221 ****        67.0000  73.5000  50.7500 Du        
  12222 ****        67.0000  73.5000  51.0000 Du        
  12223 ****        67.0000  73.7500  50.2500 Du        
  12224 ****        67.0000  73.7500  50.5000 Du        
  12225 ****        67.0000  73.7500  50.7500 Du        
  12226 ****        67.0000  73.7500  51.0000 Du        
  12227 ****        67.0000  74.0000  50.2500 Du        
  12228 ****        67.0000  74.0000  50.5000 Du        
  12229 ****        67.0000  74.0000  50.7500 Du        
  12230 ****        67.0000  74.2500  50.0000 Du        
  12231 ****        67.0000  74.2500  50.2500 Du        
  12232 ****        67.0000  74.2500  50.5000 Du        
  12233 ****        67.0000  74.2500  50.7500 Du        
  12234 ****        67.0000  74.5000  50.0000 Du        
  12235 ****        67.0000  74.5000  50.2500 Du        
  12236 ****        67.0000  74.5000  50.5000 Du        
  12237 ****        67.0000  74.7500  50.0000 Du        
  12238 ****        67.0000  74.7500  50.2500 Du        
  12239 ****        67.2500  64.7500  63.5000 Du        
  12240 ****        67.2500  64.7500  63.7500 Du        
  12241 ****        67.2500  64.7500  64.0000 Du        
  12242 ****        67.2500  64.7500  64.2500 Du        
  12243 ****        67.2500  65.0000  63.5000 Du        
  12244 ****        67.2500  65.0000  63.7500 Du        
  12245 ****        67.2500  65.0000  64.0000 Du        
  12246 ****        67.2500  65.0000  64.2500 Du        
  12247 ****        67.2500  65.2500  63.2500 Du        
  12248 ****        67.2500  65.2500  63.5000 Du        
  12249 ****        67.2500  65.2500  63.7500 Du        
  12250 ****        67.2500  65.2500  64.0000 Du        
  12251 ****        67.2500  65.2500  64.2500 Du        
  12252 ****        67.2500  65.2500  64.5000 Du        
  12253 ****        67.2500  65.5000  63.2500 Du        
  12254 ****        67.2500  65.5000  63.5000 Du        
  12255 ****        67.2500  65.5000  63.7500 Du        
  12256 ****        67.2500  65.5000  64.0000 Du        
  12257 ****        67.2500  65.5000  64.2500 Du        
  12258 ****        67.2500  65.5000  64.5000 Du        
  12259 ****        67.2500  65.7500  63.2500 Du        
  12260 ****        67.2500  65.7500  63.5000 Du        
  12261 ****        67.2500  65.7500  63.7500 Du        
  12262 ****        67.2500  65.7500  64.0000 Du        
  12263 ****        67.2500  65.7500  64.2500 Du        
  12264 ****        67.2500  65.7500  64.5000 Du        
  12265 ****        67.2500  65.7500  64.7500 Du        
  12266 ****        67.2500  66.0000  63.2500 Du        
  12267 ****        67.2500  66.0000  63.5000 Du        
  12268 ****        67.2500  66.0000  63.7500 Du        
  12269 ****        67.2500  66.0000  64.0000 Du        
  12270 ****        67.2500  66.0000  64.2500 Du        
  12271 ****        67.2500  66.0000  64.5000 Du        
  12272 ****        67.2500  66.0000  64.7500 Du        
  12273 ****        67.2500  66.2500  63.2500 Du        
  12274 ****        67.2500  66.2500  63.5000 Du        
  12275 ****        67.2500  66.2500  63.7500 Du        
  12276 ****        67.2500  66.2500  64.0000 Du        
  12277 ****        67.2500  66.2500  64.2500 Du        
  12278 ****        67.2500  66.5000  63.2500 Du        
  12279 ****        67.2500  66.5000  63.5000 Du        
  12280 ****        67.2500  66.5000  63.7500 Du        
  12281 ****        67.2500  67.2500  51.7500 Du        
  12282 ****        67.2500  67.5000  51.7500 Du        
  12283 ****        67.2500  67.5000  52.0000 Du        
  12284 ****        67.2500  67.7500  51.5000 Du        
  12285 ****        67.2500  67.7500  51.7500 Du        
  12286 ****        67.2500  67.7500  52.0000 Du        
  12287 ****        67.2500  68.0000  51.5000 Du        
  12288 ****        67.2500  68.0000  51.7500 Du        
  12289 ****        67.2500  68.0000  52.0000 Du        
  12290 ****        67.2500  68.0000  52.2500 Du        
  12291 ****        67.2500  68.2500  51.5000 Du        
  12292 ****        67.2500  68.2500  51.7500 Du        
  12293 ****        67.2500  68.2500  52.0000 Du        
  12294 ****        67.2500  68.2500  52.2500 Du        
  12295 ****        67.2500  68.2500  52.5000 Du        
  12296 ****        67.2500  68.5000  51.5000 Du        
  12297 ****        67.2500  68.5000  51.7500 Du        
  12298 ****        67.2500  68.5000  52.0000 Du        
  12299 ****        67.2500  68.5000  52.2500 Du        
  12300 ****        67.2500  68.5000  52.5000 Du        
  12301 ****        67.2500  68.5000  52.7500 Du        
  12302 ****        67.2500  68.7500  51.5000 Du        
  12303 ****        67.2500  68.7500  51.7500 Du        
  12304 ****        67.2500  68.7500  52.0000 Du        
  12305 ****        67.2500  68.7500  52.2500 Du        
  12306 ****        67.2500  68.7500  52.5000 Du        
  12307 ****        67.2500  68.7500  52.7500 Du        
  12308 ****        67.2500  68.7500  53.0000 Du        
  12309 ****        67.2500  69.0000  51.5000 Du        
  12310 ****        67.2500  69.0000  51.7500 Du        
  12311 ****        67.2500  69.0000  52.0000 Du        
  12312 ****        67.2500  69.0000  52.2500 Du        
  12313 ****        67.2500  69.0000  52.5000 Du        
  12314 ****        67.2500  69.0000  52.7500 Du        
  12315 ****        67.2500  69.0000  53.0000 Du        
  12316 ****        67.2500  69.2500  51.5000 Du        
  12317 ****        67.2500  69.2500  51.7500 Du        
  12318 ****        67.2500  69.2500  52.0000 Du        
  12319 ****        67.2500  69.2500  52.2500 Du        
  12320 ****        67.2500  69.2500  52.5000 Du        
  12321 ****        67.2500  69.2500  52.7500 Du        
  12322 ****        67.2500  69.2500  53.0000 Du        
  12323 ****        67.2500  69.5000  51.5000 Du        
  12324 ****        67.2500  69.5000  51.7500 Du        
  12325 ****        67.2500  69.5000  52.0000 Du        
  12326 ****        67.2500  69.5000  52.2500 Du        
  12327 ****        67.2500  69.5000  52.5000 Du        
  12328 ****        67.2500  69.5000  52.7500 Du        
  12329 ****        67.2500  69.5000  53.0000 Du        
  12330 ****        67.2500  69.7500  51.5000 Du        
  12331 ****        67.2500  69.7500  51.7500 Du        
  12332 ****        67.2500  69.7500  52.0000 Du        
  12333 ****        67.2500  69.7500  52.2500 Du        
  12334 ****        67.2500  69.7500  52.5000 Du        
  12335 ****        67.2500  69.7500  52.7500 Du        
  12336 ****        67.2500  69.7500  53.0000 Du        
  12337 ****        67.2500  70.0000  51.5000 Du        
  12338 ****        67.2500  70.0000  51.7500 Du        
  12339 ****        67.2500  70.0000  52.0000 Du        
  12340 ****        67.2500  70.0000  52.2500 Du        
  12341 ****        67.2500  70.0000  52.5000 Du        
  12342 ****        67.2500  70.0000  52.7500 Du        
  12343 ****        67.2500  70.2500  51.2500 Du        
  12344 ****        67.2500  70.2500  51.5000 Du        
  12345 ****        67.2500  70.2500  51.7500 Du        
  12346 ****        67.2500  70.2500  52.0000 Du        
  12347 ****        67.2500  70.2500  52.2500 Du        
  12348 ****        67.2500  70.2500  52.5000 Du        
  12349 ****        67.2500  70.5000  51.2500 Du        
  12350 ****        67.2500  70.5000  51.5000 Du        
  12351 ****        67.2500  70.5000  51.7500 Du        
  12352 ****        67.2500  70.5000  52.0000 Du        
  12353 ****        67.2500  70.7500  51.0000 Du        
  12354 ****        67.2500  70.7500  51.2500 Du        
  12355 ****        67.2500  70.7500  51.5000 Du        
  12356 ****        67.2500  70.7500  51.7500 Du        
  12357 ****        67.2500  70.7500  52.0000 Du        
  12358 ****        67.2500  71.0000  51.0000 Du        
  12359 ****        67.2500  71.0000  51.2500 Du        
  12360 ****        67.2500  71.0000  51.5000 Du        
  12361 ****        67.2500  71.0000  51.7500 Du        
  12362 ****        67.2500  71.2500  51.0000 Du        
  12363 ****        67.2500  71.2500  51.2500 Du        
  12364 ****        67.2500  71.2500  51.5000 Du        
  12365 ****        67.2500  71.5000  51.0000 Du        
  12366 ****        67.2500  71.5000  51.2500 Du        
  12367 ****        67.2500  71.5000  51.5000 Du        
  12368 ****        67.2500  71.7500  51.0000 Du        
  12369 ****        67.2500  71.7500  51.2500 Du        
  12370 ****        67.2500  72.0000  51.0000 Du        
  12371 ****        67.2500  72.0000  51.2500 Du        
  12372 ****        67.2500  72.2500  51.0000 Du        
  12373 ****        67.2500  72.2500  51.2500 Du        
  12374 ****        67.2500  72.5000  51.0000 Du        
  12375 ****        67.2500  72.7500  51.0000 Du        
  12376 ****        67.2500  73.0000  50.7500 Du        
  12377 ****        67.2500  73.0000  51.0000 Du        
  12378 ****        67.2500  73.2500  50.7500 Du        
  12379 ****        67.2500  73.2500  51.0000 Du        
  12380 ****        67.2500  73.5000  50.7500 Du        
  12381 ****        67.2500  73.7500  50.5000 Du        
  12382 ****        67.2500  73.7500  50.7500 Du        
  12383 ****        67.2500  74.0000  50.2500 Du        
  12384 ****        67.2500  74.0000  50.5000 Du        
  12385 ****        67.2500  74.2500  50.2500 Du        
  12386 ****        67.2500  74.5000  50.0000 Du        
  12387 ****        67.5000  64.7500  64.0000 Du        
  12388 ****        67.5000  65.0000  63.5000 Du        
  12389 ****        67.5000  65.0000  63.7500 Du        
  12390 ****        67.5000  65.0000  64.0000 Du        
  12391 ****        67.5000  65.0000  64.2500 Du        
  12392 ****        67.5000  65.2500  63.0000 Du        
  12393 ****        67.5000  65.2500  63.2500 Du        
  12394 ****        67.5000  65.2500  63.5000 Du        
  12395 ****        67.5000  65.2500  63.7500 Du        
  12396 ****        67.5000  65.2500  64.0000 Du        
  12397 ****        67.5000  65.2500  64.2500 Du        
  12398 ****        67.5000  65.2500  64.5000 Du        
  12399 ****        67.5000  65.5000  63.0000 Du        
  12400 ****        67.5000  65.5000  63.2500 Du        
  12401 ****        67.5000  65.5000  63.5000 Du        
  12402 ****        67.5000  65.5000  63.7500 Du        
  12403 ****        67.5000  65.5000  64.0000 Du        
  12404 ****        67.5000  65.5000  64.2500 Du        
  12405 ****        67.5000  65.5000  64.5000 Du        
  12406 ****        67.5000  65.7500  62.7500 Du        
  12407 ****        67.5000  65.7500  63.0000 Du        
  12408 ****        67.5000  65.7500  63.2500 Du        
  12409 ****        67.5000  65.7500  63.5000 Du        
  12410 ****        67.5000  65.7500  63.7500 Du        
  12411 ****        67.5000  65.7500  64.0000 Du        
  12412 ****        67.5000  65.7500  64.2500 Du        
  12413 ****        67.5000  65.7500  64.5000 Du        
  12414 ****        67.5000  65.7500  64.7500 Du        
  12415 ****        67.5000  66.0000  62.7500 Du        
  12416 ****        67.5000  66.0000  63.0000 Du        
  12417 ****        67.5000  66.0000  63.2500 Du        
  12418 ****        67.5000  66.0000  63.5000 Du        
  12419 ****        67.5000  66.0000  63.7500 Du        
  12420 ****        67.5000  66.0000  64.0000 Du        
  12421 ****        67.5000  66.0000  64.2500 Du        
  12422 ****        67.5000  66.0000  64.5000 Du        
  12423 ****        67.5000  66.2500  62.7500 Du        
  12424 ****        67.5000  66.2500  63.0000 Du        
  12425 ****        67.5000  66.2500  63.2500 Du        
  12426 ****        67.5000  66.2500  63.5000 Du        
  12427 ****        67.5000  66.2500  63.7500 Du        
  12428 ****        67.5000  66.5000  62.7500 Du        
  12429 ****        67.5000  66.5000  63.0000 Du        
  12430 ****        67.5000  66.5000  63.2500 Du        
  12431 ****        67.5000  67.7500  51.7500 Du        
  12432 ****        67.5000  67.7500  52.0000 Du        
  12433 ****        67.5000  68.0000  51.5000 Du        
  12434 ****        67.5000  68.0000  51.7500 Du        
  12435 ****        67.5000  68.0000  52.0000 Du        
  12436 ****        67.5000  68.0000  52.2500 Du        
  12437 ****        67.5000  68.2500  51.5000 Du        
  12438 ****        67.5000  68.2500  51.7500 Du        
  12439 ****        67.5000  68.2500  52.0000 Du        
  12440 ****        67.5000  68.2500  52.2500 Du        
  12441 ****        67.5000  68.2500  52.5000 Du        
  12442 ****        67.5000  68.5000  51.5000 Du        
  12443 ****        67.5000  68.5000  51.7500 Du        
  12444 ****        67.5000  68.5000  52.0000 Du        
  12445 ****        67.5000  68.5000  52.2500 Du        
  12446 ****        67.5000  68.5000  52.5000 Du        
  12447 ****        67.5000  68.5000  52.7500 Du        
  12448 ****        67.5000  68.7500  51.5000 Du        
  12449 ****        67.5000  68.7500  51.7500 Du        
  12450 ****        67.5000  68.7500  52.0000 Du        
  12451 ****        67.5000  68.7500  52.2500 Du        
  12452 ****        67.5000  68.7500  52.5000 Du        
  12453 ****        67.5000  68.7500  52.7500 Du        
  12454 ****        67.5000  68.7500  53.0000 Du        
  12455 ****        67.5000  69.0000  51.5000 Du        
  12456 ****        67.5000  69.0000  51.7500 Du        
  12457 ****        67.5000  69.0000  52.0000 Du        
  12458 ****        67.5000  69.0000  52.2500 Du        
  12459 ****        67.5000  69.0000  52.5000 Du        
  12460 ****        67.5000  69.0000  52.7500 Du        
  12461 ****        67.5000  69.0000  53.0000 Du        
  12462 ****        67.5000  69.0000  53.2500 Du        
  12463 ****        67.5000  69.2500  51.5000 Du        
  12464 ****        67.5000  69.2500  51.7500 Du        
  12465 ****        67.5000  69.2500  52.0000 Du        
  12466 ****        67.5000  69.2500  52.2500 Du        
  12467 ****        67.5000  69.2500  52.5000 Du        
  12468 ****        67.5000  69.2500  52.7500 Du        
  12469 ****        67.5000  69.2500  53.0000 Du        
  12470 ****        67.5000  69.2500  53.2500 Du        
  12471 ****        67.5000  69.5000  51.5000 Du        
  12472 ****        67.5000  69.5000  51.7500 Du        
  12473 ****        67.5000  69.5000  52.0000 Du        
  12474 ****        67.5000  69.5000  52.2500 Du        
  12475 ****        67.5000  69.5000  52.5000 Du        
  12476 ****        67.5000  69.5000  52.7500 Du        
  12477 ****        67.5000  69.5000  53.0000 Du        
  12478 ****        67.5000  69.5000  53.2500 Du        
  12479 ****        67.5000  69.7500  51.5000 Du        
  12480 ****        67.5000  69.7500  51.7500 Du        
  12481 ****        67.5000  69.7500  52.0000 Du        
  12482 ****        67.5000  69.7500  52.2500 Du        
  12483 ****        67.5000  69.7500  52.5000 Du        
  12484 ****        67.5000  69.7500  52.7500 Du        
  12485 ****        67.5000  69.7500  53.0000 Du        
  12486 ****        67.5000  69.7500  53.2500 Du        
  12487 ****        67.5000  70.0000  51.2500 Du        
  12488 ****        67.5000  70.0000  51.5000 Du        
  12489 ****        67.5000  70.0000  51.7500 Du        
  12490 ****        67.5000  70.0000  52.0000 Du        
  12491 ****        67.5000  70.0000  52.2500 Du        
  12492 ****        67.5000  70.0000  52.5000 Du        
  12493 ****        67.5000  70.0000  52.7500 Du        
  12494 ****        67.5000  70.0000  53.0000 Du        
  12495 ****        67.5000  70.2500  51.2500 Du        
  12496 ****        67.5000  70.2500  51.5000 Du        
  12497 ****        67.5000  70.2500  51.7500 Du        
  12498 ****        67.5000  70.2500  52.0000 Du        
  12499 ****        67.5000  70.2500  52.2500 Du        
  12500 ****        67.5000  70.2500  52.5000 Du        
  12501 ****        67.5000  70.2500  52.7500 Du        
  12502 ****        67.5000  70.5000  51.2500 Du        
  12503 ****        67.5000  70.5000  51.5000 Du        
  12504 ****        67.5000  70.5000  51.7500 Du        
  12505 ****        67.5000  70.5000  52.0000 Du        
  12506 ****        67.5000  70.5000  52.2500 Du        
  12507 ****        67.5000  70.7500  51.0000 Du        
  12508 ****        67.5000  70.7500  51.2500 Du        
  12509 ****        67.5000  70.7500  51.5000 Du        
  12510 ****        67.5000  70.7500  51.7500 Du        
  12511 ****        67.5000  70.7500  52.0000 Du        
  12512 ****        67.5000  71.0000  51.0000 Du        
  12513 ****        67.5000  71.0000  51.2500 Du        
  12514 ****        67.5000  71.0000  51.5000 Du        
  12515 ****        67.5000  71.0000  51.7500 Du        
  12516 ****        67.5000  71.2500  51.0000 Du        
  12517 ****        67.5000  71.2500  51.2500 Du        
  12518 ****        67.5000  71.2500  51.5000 Du        
  12519 ****        67.5000  71.2500  51.7500 Du        
  12520 ****        67.5000  71.5000  51.0000 Du        
  12521 ****        67.5000  71.5000  51.2500 Du        
  12522 ****        67.5000  71.5000  51.5000 Du        
  12523 ****        67.5000  71.7500  51.2500 Du        
  12524 ****        67.5000  72.0000  51.0000 Du        
  12525 ****        67.5000  72.0000  51.2500 Du        
  12526 ****        67.5000  72.2500  51.0000 Du        
  12527 ****        67.5000  72.2500  51.2500 Du        
  12528 ****        67.7500  65.0000  63.5000 Du        
  12529 ****        67.7500  65.0000  63.7500 Du        
  12530 ****        67.7500  65.0000  64.0000 Du        
  12531 ****        67.7500  65.0000  64.2500 Du        
  12532 ****        67.7500  65.2500  63.0000 Du        
  12533 ****        67.7500  65.2500  63.2500 Du        
  12534 ****        67.7500  65.2500  63.5000 Du        
  12535 ****        67.7500  65.2500  63.7500 Du        
  12536 ****        67.7500  65.2500  64.0000 Du        
  12537 ****        67.7500  65.2500  64.2500 Du        
  12538 ****        67.7500  65.5000  62.7500 Du        
  12539 ****        67.7500  65.5000  63.0000 Du        
  12540 ****        67.7500  65.5000  63.2500 Du        
  12541 ****        67.7500  65.5000  63.5000 Du        
  12542 ****        67.7500  65.5000  63.7500 Du        
  12543 ****        67.7500  65.5000  64.0000 Du        
  12544 ****        67.7500  65.5000  64.2500 Du        
  12545 ****        67.7500  65.5000  64.5000 Du        
  12546 ****        67.7500  65.7500  62.7500 Du        
  12547 ****        67.7500  65.7500  63.0000 Du        
  12548 ****        67.7500  65.7500  63.2500 Du        
  12549 ****        67.7500  65.7500  63.5000 Du        
  12550 ****        67.7500  65.7500  63.7500 Du        
  12551 ****        67.7500  65.7500  64.0000 Du        
  12552 ****        67.7500  65.7500  64.2500 Du        
  12553 ****        67.7500  65.7500  64.5000 Du        
  12554 ****        67.7500  66.0000  62.7500 Du        
  12555 ****        67.7500  66.0000  63.0000 Du        
  12556 ****        67.7500  66.0000  63.2500 Du        
  12557 ****        67.7500  66.0000  63.5000 Du        
  12558 ****        67.7500  66.0000  63.7500 Du        
  12559 ****        67.7500  66.0000  64.0000 Du        
  12560 ****        67.7500  66.2500  62.7500 Du        
  12561 ****        67.7500  66.2500  63.0000 Du        
  12562 ****        67.7500  66.2500  63.2500 Du        
  12563 ****        67.7500  68.0000  51.7500 Du        
  12564 ****        67.7500  68.0000  52.0000 Du        
  12565 ****        67.7500  68.2500  51.5000 Du        
  12566 ****        67.7500  68.2500  51.7500 Du        
  12567 ****        67.7500  68.2500  52.0000 Du        
  12568 ****        67.7500  68.2500  52.2500 Du        
  12569 ****        67.7500  68.5000  51.5000 Du        
  12570 ****        67.7500  68.5000  51.7500 Du        
  12571 ****        67.7500  68.5000  52.0000 Du        
  12572 ****        67.7500  68.5000  52.2500 Du        
  12573 ****        67.7500  68.5000  52.5000 Du        
  12574 ****        67.7500  68.5000  52.7500 Du        
  12575 ****        67.7500  68.7500  51.5000 Du        
  12576 ****        67.7500  68.7500  51.7500 Du        
  12577 ****        67.7500  68.7500  52.0000 Du        
  12578 ****        67.7500  68.7500  52.2500 Du        
  12579 ****        67.7500  68.7500  52.5000 Du        
  12580 ****        67.7500  68.7500  52.7500 Du        
  12581 ****        67.7500  68.7500  53.0000 Du        
  12582 ****        67.7500  69.0000  51.5000 Du        
  12583 ****        67.7500  69.0000  51.7500 Du        
  12584 ****        67.7500  69.0000  52.0000 Du        
  12585 ****        67.7500  69.0000  52.2500 Du        
  12586 ****        67.7500  69.0000  52.5000 Du        
  12587 ****        67.7500  69.0000  52.7500 Du        
  12588 ****        67.7500  69.0000  53.0000 Du        
  12589 ****        67.7500  69.0000  53.2500 Du        
  12590 ****        67.7500  69.2500  51.2500 Du        
  12591 ****        67.7500  69.2500  51.5000 Du        
  12592 ****        67.7500  69.2500  51.7500 Du        
  12593 ****        67.7500  69.2500  52.0000 Du        
  12594 ****        67.7500  69.2500  52.2500 Du        
  12595 ****        67.7500  69.2500  52.5000 Du        
  12596 ****        67.7500  69.2500  52.7500 Du        
  12597 ****        67.7500  69.2500  53.0000 Du        
  12598 ****        67.7500  69.2500  53.2500 Du        
  12599 ****        67.7500  69.2500  53.5000 Du        
  12600 ****        67.7500  69.5000  51.2500 Du        
  12601 ****        67.7500  69.5000  51.5000 Du        
  12602 ****        67.7500  69.5000  51.7500 Du        
  12603 ****        67.7500  69.5000  52.0000 Du        
  12604 ****        67.7500  69.5000  52.2500 Du        
  12605 ****        67.7500  69.5000  52.5000 Du        
  12606 ****        67.7500  69.5000  52.7500 Du        
  12607 ****        67.7500  69.5000  53.0000 Du        
  12608 ****        67.7500  69.5000  53.2500 Du        
  12609 ****        67.7500  69.5000  53.5000 Du        
  12610 ****        67.7500  69.5000  53.7500 Du        
  12611 ****        67.7500  69.7500  51.2500 Du        
  12612 ****        67.7500  69.7500  51.5000 Du        
  12613 ****        67.7500  69.7500  51.7500 Du        
  12614 ****        67.7500  69.7500  52.0000 Du        
  12615 ****        67.7500  69.7500  52.2500 Du        
  12616 ****        67.7500  69.7500  52.5000 Du        
  12617 ****        67.7500  69.7500  52.7500 Du        
  12618 ****        67.7500  69.7500  53.0000 Du        
  12619 ****        67.7500  69.7500  53.2500 Du        
  12620 ****        67.7500  69.7500  53.5000 Du        
  12621 ****        67.7500  70.0000  51.2500 Du        
  12622 ****        67.7500  70.0000  51.5000 Du        
  12623 ****        67.7500  70.0000  51.7500 Du        
  12624 ****        67.7500  70.0000  52.0000 Du        
  12625 ****        67.7500  70.0000  52.2500 Du        
  12626 ****        67.7500  70.0000  52.5000 Du        
  12627 ****        67.7500  70.0000  52.7500 Du        
  12628 ****        67.7500  70.0000  53.0000 Du        
  12629 ****        67.7500  70.0000  53.2500 Du        
  12630 ****        67.7500  70.2500  51.2500 Du        
  12631 ****        67.7500  70.2500  51.5000 Du        
  12632 ****        67.7500  70.2500  51.7500 Du        
  12633 ****        67.7500  70.2500  52.0000 Du        
  12634 ****        67.7500  70.2500  52.2500 Du        
  12635 ****        67.7500  70.2500  52.5000 Du        
  12636 ****        67.7500  70.2500  52.7500 Du        
  12637 ****        67.7500  70.2500  53.0000 Du        
  12638 ****        67.7500  70.5000  51.2500 Du        
  12639 ****        67.7500  70.5000  51.5000 Du        
  12640 ****        67.7500  70.5000  51.7500 Du        
  12641 ****        67.7500  70.5000  52.0000 Du        
  12642 ****        67.7500  70.5000  52.2500 Du        
  12643 ****        67.7500  70.5000  52.5000 Du        
  12644 ****        67.7500  70.7500  51.0000 Du        
  12645 ****        67.7500  70.7500  51.2500 Du        
  12646 ****        67.7500  70.7500  51.5000 Du        
  12647 ****        67.7500  70.7500  51.7500 Du        
  12648 ****        67.7500  70.7500  52.0000 Du        
  12649 ****        67.7500  70.7500  52.2500 Du        
  12650 ****        67.7500  71.0000  51.0000 Du        
  12651 ****        67.7500  71.0000  51.2500 Du        
  12652 ****        67.7500  71.0000  51.5000 Du        
  12653 ****        67.7500  71.0000  51.7500 Du        
  12654 ****        67.7500  71.0000  52.0000 Du        
  12655 ****        67.7500  71.2500  51.0000 Du        
  12656 ****        67.7500  71.2500  51.2500 Du        
  12657 ****        67.7500  71.2500  51.5000 Du        
  12658 ****        67.7500  71.2500  51.7500 Du        
  12659 ****        67.7500  71.5000  51.2500 Du        
  12660 ****        67.7500  71.5000  51.5000 Du        
  12661 ****        67.7500  71.7500  51.2500 Du        
  12662 ****        67.7500  71.7500  51.5000 Du        
  12663 ****        67.7500  72.0000  51.2500 Du        
  12664 ****        67.7500  72.2500  51.2500 Du        
  12665 ****        68.0000  59.7500  60.5000 Du        
  12666 ****        68.0000  60.0000  60.2500 Du        
  12667 ****        68.0000  60.0000  60.5000 Du        
  12668 ****        68.0000  60.2500  60.2500 Du        
  12669 ****        68.0000  60.2500  60.5000 Du        
  12670 ****        68.0000  65.0000  64.0000 Du        
  12671 ****        68.0000  65.2500  63.5000 Du        
  12672 ****        68.0000  65.2500  63.7500 Du        
  12673 ****        68.0000  65.2500  64.0000 Du        
  12674 ****        68.0000  65.2500  64.2500 Du        
  12675 ****        68.0000  65.5000  63.0000 Du        
  12676 ****        68.0000  65.5000  63.2500 Du        
  12677 ****        68.0000  65.5000  63.5000 Du        
  12678 ****        68.0000  65.5000  63.7500 Du        
  12679 ****        68.0000  65.5000  64.0000 Du        
  12680 ****        68.0000  65.5000  64.2500 Du        
  12681 ****        68.0000  65.7500  62.7500 Du        
  12682 ****        68.0000  65.7500  63.0000 Du        
  12683 ****        68.0000  65.7500  63.2500 Du        
  12684 ****        68.0000  65.7500  63.5000 Du        
  12685 ****        68.0000  65.7500  63.7500 Du        
  12686 ****        68.0000  66.0000  63.0000 Du        
  12687 ****        68.0000  66.0000  63.2500 Du        
  12688 ****        68.0000  68.2500  52.0000 Du        
  12689 ****        68.0000  68.5000  51.7500 Du        
  12690 ****        68.0000  68.5000  52.0000 Du        
  12691 ****        68.0000  68.5000  52.2500 Du        
  12692 ****        68.0000  68.7500  51.5000 Du        
  12693 ****        68.0000  68.7500  51.7500 Du        
  12694 ****        68.0000  68.7500  52.0000 Du        
  12695 ****        68.0000  68.7500  52.2500 Du        
  12696 ****        68.0000  68.7500  52.5000 Du        
  12697 ****        68.0000  68.7500  52.7500 Du        
  12698 ****        68.0000  68.7500  53.0000 Du        
  12699 ****        68.0000  69.0000  51.5000 Du        
  12700 ****        68.0000  69.0000  51.7500 Du        
  12701 ****        68.0000  69.0000  52.0000 Du        
  12702 ****        68.0000  69.0000  52.2500 Du        
  12703 ****        68.0000  69.0000  52.5000 Du        
  12704 ****        68.0000  69.0000  52.7500 Du        
  12705 ****        68.0000  69.0000  53.0000 Du        
  12706 ****        68.0000  69.0000  53.2500 Du        
  12707 ****        68.0000  69.2500  51.5000 Du        
  12708 ****        68.0000  69.2500  51.7500 Du        
  12709 ****        68.0000  69.2500  52.0000 Du        
  12710 ****        68.0000  69.2500  52.2500 Du        
  12711 ****        68.0000  69.2500  52.5000 Du        
  12712 ****        68.0000  69.2500  52.7500 Du        
  12713 ****        68.0000  69.2500  53.0000 Du        
  12714 ****        68.0000  69.2500  53.2500 Du        
  12715 ****        68.0000  69.2500  53.5000 Du        
  12716 ****        68.0000  69.2500  53.7500 Du        
  12717 ****        68.0000  69.5000  51.2500 Du        
  12718 ****        68.0000  69.5000  51.5000 Du        
  12719 ****        68.0000  69.5000  51.7500 Du        
  12720 ****        68.0000  69.5000  52.0000 Du        
  12721 ****        68.0000  69.5000  52.2500 Du        
  12722 ****        68.0000  69.5000  52.5000 Du        
  12723 ****        68.0000  69.5000  52.7500 Du        
  12724 ****        68.0000  69.5000  53.0000 Du        
  12725 ****        68.0000  69.5000  53.2500 Du        
  12726 ****        68.0000  69.5000  53.5000 Du        
  12727 ****        68.0000  69.5000  53.7500 Du        
  12728 ****        68.0000  69.5000  54.0000 Du        
  12729 ****        68.0000  69.7500  51.2500 Du        
  12730 ****        68.0000  69.7500  51.5000 Du        
  12731 ****        68.0000  69.7500  51.7500 Du        
  12732 ****        68.0000  69.7500  52.0000 Du        
  12733 ****        68.0000  69.7500  52.2500 Du        
  12734 ****        68.0000  69.7500  52.5000 Du        
  12735 ****        68.0000  69.7500  52.7500 Du        
  12736 ****        68.0000  69.7500  53.0000 Du        
  12737 ****        68.0000  69.7500  53.2500 Du        
  12738 ****        68.0000  69.7500  53.5000 Du        
  12739 ****        68.0000  69.7500  53.7500 Du        
  12740 ****        68.0000  69.7500  54.0000 Du        
  12741 ****        68.0000  70.0000  51.2500 Du        
  12742 ****        68.0000  70.0000  51.5000 Du        
  12743 ****        68.0000  70.0000  51.7500 Du        
  12744 ****        68.0000  70.0000  52.0000 Du        
  12745 ****        68.0000  70.0000  52.2500 Du        
  12746 ****        68.0000  70.0000  52.5000 Du        
  12747 ****        68.0000  70.0000  52.7500 Du        
  12748 ****        68.0000  70.0000  53.0000 Du        
  12749 ****        68.0000  70.0000  53.2500 Du        
  12750 ****        68.0000  70.0000  53.5000 Du        
  12751 ****        68.0000  70.0000  53.7500 Du        
  12752 ****        68.0000  70.2500  51.2500 Du        
  12753 ****        68.0000  70.2500  51.5000 Du        
  12754 ****        68.0000  70.2500  51.7500 Du        
  12755 ****        68.0000  70.2500  52.0000 Du        
  12756 ****        68.0000  70.2500  52.2500 Du        
  12757 ****        68.0000  70.2500  52.5000 Du        
  12758 ****        68.0000  70.2500  52.7500 Du        
  12759 ****        68.0000  70.2500  53.0000 Du        
  12760 ****        68.0000  70.2500  53.2500 Du        
  12761 ****        68.0000  70.5000  51.2500 Du        
  12762 ****        68.0000  70.5000  51.5000 Du        
  12763 ****        68.0000  70.5000  51.7500 Du        
  12764 ****        68.0000  70.5000  52.0000 Du        
  12765 ****        68.0000  70.5000  52.2500 Du        
  12766 ****        68.0000  70.5000  52.5000 Du        
  12767 ****        68.0000  70.5000  52.7500 Du        
  12768 ****        68.0000  70.7500  51.0000 Du        
  12769 ****        68.0000  70.7500  51.2500 Du        
  12770 ****        68.0000  70.7500  51.5000 Du        
  12771 ****        68.0000  70.7500  51.7500 Du        
  12772 ****        68.0000  70.7500  52.0000 Du        
  12773 ****        68.0000  70.7500  52.2500 Du        
  12774 ****        68.0000  71.0000  51.0000 Du        
  12775 ****        68.0000  71.0000  51.2500 Du        
  12776 ****        68.0000  71.0000  51.5000 Du        
  12777 ****        68.0000  71.0000  51.7500 Du        
  12778 ****        68.0000  71.0000  52.0000 Du        
  12779 ****        68.0000  71.0000  52.2500 Du        
  12780 ****        68.0000  71.2500  51.2500 Du        
  12781 ****        68.0000  71.2500  51.5000 Du        
  12782 ****        68.0000  71.2500  51.7500 Du        
  12783 ****        68.0000  71.2500  52.0000 Du        
  12784 ****        68.0000  71.5000  51.2500 Du        
  12785 ****        68.0000  71.5000  51.5000 Du        
  12786 ****        68.0000  71.5000  51.7500 Du        
  12787 ****        68.0000  71.7500  51.2500 Du        
  12788 ****        68.0000  71.7500  51.5000 Du        
  12789 ****        68.0000  72.0000  51.2500 Du        
  12790 ****        68.0000  72.0000  51.5000 Du        
  12791 ****        68.2500  59.7500  60.5000 Du        
  12792 ****        68.2500  59.7500  60.7500 Du        
  12793 ****        68.2500  60.0000  60.5000 Du        
  12794 ****        68.2500  60.0000  60.7500 Du        
  12795 ****        68.2500  60.2500  60.2500 Du        
  12796 ****        68.2500  60.2500  60.5000 Du        
  12797 ****        68.2500  60.2500  60.7500 Du        
  12798 ****        68.2500  60.5000  60.5000 Du        
  12799 ****        68.2500  60.5000  60.7500 Du        
  12800 ****        68.2500  69.2500  51.5000 Du        
  12801 ****        68.2500  69.2500  51.7500 Du        
  12802 ****        68.2500  69.2500  52.0000 Du        
  12803 ****        68.2500  69.2500  52.2500 Du        
  12804 ****        68.2500  69.2500  52.5000 Du        
  12805 ****        68.2500  69.2500  52.7500 Du        
  12806 ****        68.2500  69.2500  53.0000 Du        
  12807 ****        68.2500  69.2500  53.2500 Du        
  12808 ****        68.2500  69.2500  53.5000 Du        
  12809 ****        68.2500  69.2500  53.7500 Du        
  12810 ****        68.2500  69.2500  54.0000 Du        
  12811 ****        68.2500  69.5000  51.5000 Du        
  12812 ****        68.2500  69.5000  51.7500 Du        
  12813 ****        68.2500  69.5000  52.0000 Du        
  12814 ****        68.2500  69.5000  52.2500 Du        
  12815 ****        68.2500  69.5000  52.5000 Du        
  12816 ****        68.2500  69.5000  52.7500 Du        
  12817 ****        68.2500  69.5000  53.0000 Du        
  12818 ****        68.2500  69.5000  53.2500 Du        
  12819 ****        68.2500  69.5000  53.5000 Du        
  12820 ****        68.2500  69.5000  53.7500 Du        
  12821 ****        68.2500  69.5000  54.0000 Du        
  12822 ****        68.2500  69.5000  54.2500 Du        
  12823 ****        68.2500  69.7500  51.2500 Du        
  12824 ****        68.2500  69.7500  51.5000 Du        
  12825 ****        68.2500  69.7500  51.7500 Du        
  12826 ****        68.2500  69.7500  52.0000 Du        
  12827 ****        68.2500  69.7500  52.2500 Du        
  12828 ****        68.2500  69.7500  52.5000 Du        
  12829 ****        68.2500  69.7500  52.7500 Du        
  12830 ****        68.2500  69.7500  53.0000 Du        
  12831 ****        68.2500  69.7500  53.2500 Du        
  12832 ****        68.2500  69.7500  53.5000 Du        
  12833 ****        68.2500  69.7500  53.7500 Du        
  12834 ****        68.2500  69.7500  54.0000 Du        
  12835 ****        68.2500  69.7500  54.2500 Du        
  12836 ****        68.2500  70.0000  51.2500 Du        
  12837 ****        68.2500  70.0000  51.5000 Du        
  12838 ****        68.2500  70.0000  51.7500 Du        
  12839 ****        68.2500  70.0000  52.0000 Du        
  12840 ****        68.2500  70.0000  52.2500 Du        
  12841 ****        68.2500  70.0000  52.5000 Du        
  12842 ****        68.2500  70.0000  52.7500 Du        
  12843 ****        68.2500  70.0000  53.0000 Du        
  12844 ****        68.2500  70.0000  53.2500 Du        
  12845 ****        68.2500  70.0000  53.5000 Du        
  12846 ****        68.2500  70.0000  53.7500 Du        
  12847 ****        68.2500  70.0000  54.0000 Du        
  12848 ****        68.2500  70.2500  51.2500 Du        
  12849 ****        68.2500  70.2500  51.5000 Du        
  12850 ****        68.2500  70.2500  51.7500 Du        
  12851 ****        68.2500  70.2500  52.0000 Du        
  12852 ****        68.2500  70.2500  52.2500 Du        
  12853 ****        68.2500  70.2500  52.5000 Du        
  12854 ****        68.2500  70.2500  52.7500 Du        
  12855 ****        68.2500  70.2500  53.0000 Du        
  12856 ****        68.2500  70.2500  53.2500 Du        
  12857 ****        68.2500  70.2500  53.5000 Du        
  12858 ****        68.2500  70.5000  51.2500 Du        
  12859 ****        68.2500  70.5000  51.5000 Du        
  12860 ****        68.2500  70.5000  51.7500 Du        
  12861 ****        68.2500  70.5000  52.0000 Du        
  12862 ****        68.2500  70.5000  52.2500 Du        
  12863 ****        68.2500  70.5000  52.5000 Du        
  12864 ****        68.2500  70.5000  52.7500 Du        
  12865 ****        68.2500  70.5000  53.0000 Du        
  12866 ****        68.2500  70.7500  51.2500 Du        
  12867 ****        68.2500  70.7500  51.5000 Du        
  12868 ****        68.2500  70.7500  51.7500 Du        
  12869 ****        68.2500  70.7500  52.0000 Du        
  12870 ****        68.2500  70.7500  52.2500 Du        
  12871 ****        68.2500  70.7500  52.5000 Du        
  12872 ****        68.2500  70.7500  52.7500 Du        
  12873 ****        68.2500  71.0000  51.2500 Du        
  12874 ****        68.2500  71.0000  51.5000 Du        
  12875 ****        68.2500  71.0000  51.7500 Du        
  12876 ****        68.2500  71.0000  52.0000 Du        
  12877 ****        68.2500  71.0000  52.2500 Du        
  12878 ****        68.2500  71.2500  51.2500 Du        
  12879 ****        68.2500  71.2500  51.5000 Du        
  12880 ****        68.2500  71.2500  51.7500 Du        
  12881 ****        68.2500  71.2500  52.0000 Du        
  12882 ****        68.2500  71.5000  51.2500 Du        
  12883 ****        68.2500  71.5000  51.5000 Du        
  12884 ****        68.2500  71.5000  51.7500 Du        
  12885 ****        68.2500  71.5000  52.0000 Du        
  12886 ****        68.2500  71.7500  51.2500 Du        
  12887 ****        68.2500  71.7500  51.5000 Du        
  12888 ****        68.2500  71.7500  51.7500 Du        
  12889 ****        68.2500  72.0000  51.2500 Du        
  12890 ****        68.2500  72.0000  51.5000 Du        
  12891 ****        68.5000  59.5000  61.0000 Du        
  12892 ****        68.5000  59.7500  60.7500 Du        
  12893 ****        68.5000  59.7500  61.0000 Du        
  12894 ****        68.5000  60.0000  60.5000 Du        
  12895 ****        68.5000  60.0000  60.7500 Du        
  12896 ****        68.5000  60.0000  61.0000 Du        
  12897 ****        68.5000  60.2500  60.5000 Du        
  12898 ****        68.5000  60.2500  60.7500 Du        
  12899 ****        68.5000  60.2500  61.0000 Du        
  12900 ****        68.5000  60.5000  60.5000 Du        
  12901 ****        68.5000  60.5000  60.7500 Du        
  12902 ****        68.5000  60.5000  61.0000 Du        
  12903 ****        68.5000  69.2500  54.0000 Du        
  12904 ****        68.5000  69.5000  53.2500 Du        
  12905 ****        68.5000  69.5000  53.5000 Du        
  12906 ****        68.5000  69.5000  53.7500 Du        
  12907 ****        68.5000  69.5000  54.0000 Du        
  12908 ****        68.5000  69.5000  54.2500 Du        
  12909 ****        68.5000  69.5000  54.5000 Du        
  12910 ****        68.5000  69.7500  51.5000 Du        
  12911 ****        68.5000  69.7500  51.7500 Du        
  12912 ****        68.5000  69.7500  52.0000 Du        
  12913 ****        68.5000  69.7500  52.2500 Du        
  12914 ****        68.5000  69.7500  52.5000 Du        
  12915 ****        68.5000  69.7500  52.7500 Du        
  12916 ****        68.5000  69.7500  53.0000 Du        
  12917 ****        68.5000  69.7500  53.2500 Du        
  12918 ****        68.5000  69.7500  53.5000 Du        
  12919 ****        68.5000  69.7500  53.7500 Du        
  12920 ****        68.5000  69.7500  54.0000 Du        
  12921 ****        68.5000  69.7500  54.2500 Du        
  12922 ****        68.5000  70.0000  51.2500 Du        
  12923 ****        68.5000  70.0000  51.5000 Du        
  12924 ****        68.5000  70.0000  51.7500 Du        
  12925 ****        68.5000  70.0000  52.0000 Du        
  12926 ****        68.5000  70.0000  52.2500 Du        
  12927 ****        68.5000  70.0000  52.5000 Du        
  12928 ****        68.5000  70.0000  52.7500 Du        
  12929 ****        68.5000  70.0000  53.0000 Du        
  12930 ****        68.5000  70.0000  53.2500 Du        
  12931 ****        68.5000  70.0000  53.5000 Du        
  12932 ****        68.5000  70.0000  53.7500 Du        
  12933 ****        68.5000  70.0000  54.0000 Du        
  12934 ****        68.5000  70.0000  54.2500 Du        
  12935 ****        68.5000  70.2500  51.2500 Du        
  12936 ****        68.5000  70.2500  51.5000 Du        
  12937 ****        68.5000  70.2500  51.7500 Du        
  12938 ****        68.5000  70.2500  52.0000 Du        
  12939 ****        68.5000  70.2500  52.2500 Du        
  12940 ****        68.5000  70.2500  52.5000 Du        
  12941 ****        68.5000  70.2500  52.7500 Du        
  12942 ****        68.5000  70.2500  53.0000 Du        
  12943 ****        68.5000  70.2500  53.2500 Du        
  12944 ****        68.5000  70.2500  53.5000 Du        
  12945 ****        68.5000  70.2500  53.7500 Du        
  12946 ****        68.5000  70.2500  54.0000 Du        
  12947 ****        68.5000  70.5000  51.2500 Du        
  12948 ****        68.5000  70.5000  51.5000 Du        
  12949 ****        68.5000  70.5000  51.7500 Du        
  12950 ****        68.5000  70.5000  52.0000 Du        
  12951 ****        68.5000  70.5000  52.2500 Du        
  12952 ****        68.5000  70.5000  52.5000 Du        
  12953 ****        68.5000  70.5000  52.7500 Du        
  12954 ****        68.5000  70.5000  53.0000 Du        
  12955 ****        68.5000  70.5000  53.2500 Du        
  12956 ****        68.5000  70.5000  53.5000 Du        
  12957 ****        68.5000  70.7500  51.2500 Du        
  12958 ****        68.5000  70.7500  51.5000 Du        
  12959 ****        68.5000  70.7500  51.7500 Du        
  12960 ****        68.5000  70.7500  52.0000 Du        
  12961 ****        68.5000  70.7500  52.2500 Du        
  12962 ****        68.5000  70.7500  52.5000 Du        
  12963 ****        68.5000  70.7500  52.7500 Du        
  12964 ****        68.5000  70.7500  53.0000 Du        
  12965 ****        68.5000  71.0000  51.2500 Du        
  12966 ****        68.5000  71.0000  51.5000 Du        
  12967 ****        68.5000  71.0000  51.7500 Du        
  12968 ****        68.5000  71.0000  52.0000 Du        
  12969 ****        68.5000  71.0000  52.2500 Du        
  12970 ****        68.5000  71.0000  52.5000 Du        
  12971 ****        68.5000  71.2500  51.2500 Du        
  12972 ****        68.5000  71.2500  51.5000 Du        
  12973 ****        68.5000  71.2500  51.7500 Du        
  12974 ****        68.5000  71.2500  52.0000 Du        
  12975 ****        68.5000  71.2500  52.2500 Du        
  12976 ****        68.5000  71.5000  51.2500 Du        
  12977 ****        68.5000  71.5000  51.5000 Du        
  12978 ****        68.5000  71.5000  51.7500 Du        
  12979 ****        68.5000  71.5000  52.0000 Du        
  12980 ****        68.5000  71.7500  51.5000 Du        
  12981 ****        68.5000  71.7500  51.7500 Du        
  12982 ****        68.5000  71.7500  52.0000 Du        
  12983 ****        68.5000  72.0000  51.5000 Du        
  12984 ****        68.5000  72.0000  51.7500 Du        
  12985 ****        68.7500  59.2500  61.2500 Du        
  12986 ****        68.7500  59.5000  61.0000 Du        
  12987 ****        68.7500  59.5000  61.2500 Du        
  12988 ****        68.7500  59.7500  60.7500 Du        
  12989 ****        68.7500  59.7500  61.0000 Du        
  12990 ****        68.7500  59.7500  61.2500 Du        
  12991 ****        68.7500  60.0000  60.7500 Du        
  12992 ****        68.7500  60.0000  61.0000 Du        
  12993 ****        68.7500  60.0000  61.2500 Du        
  12994 ****        68.7500  60.2500  60.7500 Du        
  12995 ****        68.7500  60.2500  61.0000 Du        
  12996 ****        68.7500  60.2500  61.2500 Du        
  12997 ****        68.7500  60.5000  60.7500 Du        
  12998 ****        68.7500  60.5000  61.0000 Du        
  12999 ****        68.7500  69.5000  53.7500 Du        
  13000 ****        68.7500  69.5000  54.0000 Du        
  13001 ****        68.7500  69.5000  54.2500 Du        
  13002 ****        68.7500  69.5000  54.5000 Du        
  13003 ****        68.7500  69.5000  54.7500 Du        
  13004 ****        68.7500  69.7500  53.5000 Du        
  13005 ****        68.7500  69.7500  53.7500 Du        
  13006 ****        68.7500  69.7500  54.0000 Du        
  13007 ****        68.7500  69.7500  54.2500 Du        
  13008 ****        68.7500  69.7500  54.5000 Du        
  13009 ****        68.7500  69.7500  54.7500 Du        
  13010 ****        68.7500  70.0000  53.0000 Du        
  13011 ****        68.7500  70.0000  53.2500 Du        
  13012 ****        68.7500  70.0000  53.5000 Du        
  13013 ****        68.7500  70.0000  53.7500 Du        
  13014 ****        68.7500  70.0000  54.0000 Du        
  13015 ****        68.7500  70.0000  54.2500 Du        
  13016 ****        68.7500  70.2500  51.2500 Du        
  13017 ****        68.7500  70.2500  51.5000 Du        
  13018 ****        68.7500  70.2500  51.7500 Du        
  13019 ****        68.7500  70.2500  52.0000 Du        
  13020 ****        68.7500  70.2500  52.2500 Du        
  13021 ****        68.7500  70.2500  52.5000 Du        
  13022 ****        68.7500  70.2500  52.7500 Du        
  13023 ****        68.7500  70.2500  53.0000 Du        
  13024 ****        68.7500  70.2500  53.2500 Du        
  13025 ****        68.7500  70.2500  53.5000 Du        
  13026 ****        68.7500  70.2500  53.7500 Du        
  13027 ****        68.7500  70.2500  54.0000 Du        
  13028 ****        68.7500  70.2500  54.2500 Du        
  13029 ****        68.7500  70.5000  51.2500 Du        
  13030 ****        68.7500  70.5000  51.5000 Du        
  13031 ****        68.7500  70.5000  51.7500 Du        
  13032 ****        68.7500  70.5000  52.0000 Du        
  13033 ****        68.7500  70.5000  52.2500 Du        
  13034 ****        68.7500  70.5000  52.5000 Du        
  13035 ****        68.7500  70.5000  52.7500 Du        
  13036 ****        68.7500  70.5000  53.0000 Du        
  13037 ****        68.7500  70.5000  53.2500 Du        
  13038 ****        68.7500  70.5000  53.5000 Du        
  13039 ****        68.7500  70.5000  53.7500 Du        
  13040 ****        68.7500  70.7500  51.2500 Du        
  13041 ****        68.7500  70.7500  51.5000 Du        
  13042 ****        68.7500  70.7500  51.7500 Du        
  13043 ****        68.7500  70.7500  52.0000 Du        
  13044 ****        68.7500  70.7500  52.2500 Du        
  13045 ****        68.7500  70.7500  52.5000 Du        
  13046 ****        68.7500  70.7500  52.7500 Du        
  13047 ****        68.7500  70.7500  53.0000 Du        
  13048 ****        68.7500  70.7500  53.2500 Du        
  13049 ****        68.7500  70.7500  53.5000 Du        
  13050 ****        68.7500  71.0000  51.2500 Du        
  13051 ****        68.7500  71.0000  51.5000 Du        
  13052 ****        68.7500  71.0000  51.7500 Du        
  13053 ****        68.7500  71.0000  52.0000 Du        
  13054 ****        68.7500  71.0000  52.2500 Du        
  13055 ****        68.7500  71.0000  52.5000 Du        
  13056 ****        68.7500  71.0000  52.7500 Du        
  13057 ****        68.7500  71.0000  53.0000 Du        
  13058 ****        68.7500  71.2500  51.2500 Du        
  13059 ****        68.7500  71.2500  51.5000 Du        
  13060 ****        68.7500  71.2500  51.7500 Du        
  13061 ****        68.7500  71.2500  52.0000 Du        
  13062 ****        68.7500  71.2500  52.2500 Du        
  13063 ****        68.7500  71.2500  52.5000 Du        
  13064 ****        68.7500  71.2500  52.7500 Du        
  13065 ****        68.7500  71.5000  51.5000 Du        
  13066 ****        68.7500  71.5000  51.7500 Du        
  13067 ****        68.7500  71.5000  52.0000 Du        
  13068 ****        68.7500  71.5000  52.2500 Du        
  13069 ****        68.7500  71.7500  51.5000 Du        
  13070 ****        68.7500  71.7500  51.7500 Du        
  13071 ****        68.7500  71.7500  52.0000 Du        
  13072 ****        68.7500  72.0000  51.5000 Du        
  13073 ****        68.7500  72.0000  51.7500 Du        
  13074 ****        68.7500  72.0000  52.0000 Du        
