C12H12ClN5O4S|Chlorsulfuron|mol|1|dock25
  -GOLD-   23022 1383D 1   1.00000     0.00000
 
 35 36  0  0  0  0  0  0  0  0  1 V2000
   52.7036   51.8666   45.2538 C   0  0  0  0  0  0  0  0  0  0  0  0
   53.4258   53.1046   45.7196 C   0  0  0  0  0  0  0  0  0  0  0  0
   54.6313   53.3791   45.2535 N   0  0  0  0  0  0  0  0  0  0  0  0
   55.2710   54.4711   45.6629 C   0  0  0  0  0  0  0  0  0  0  0  0
   54.6965   55.2851   46.5407 N   0  0  0  0  0  0  0  0  0  0  0  0
   53.4857   55.0060   47.0064 C   0  0  0  0  0  0  0  0  0  0  0  0
   52.8496   53.9163   46.5894 N   0  0  0  0  0  0  0  0  0  0  0  0
   52.8973   55.8328   47.9014 O   0  0  0  0  0  0  0  0  0  0  0  0
   51.7936   56.4469   47.2329 C   0  0  0  0  0  0  0  0  0  0  0  0
   56.5352   54.7585   45.1744 N   0  0  0  0  0  0  0  0  0  0  0  0
   57.5054   55.1681   46.0154 C   0  0  0  0  0  0  0  0  0  0  0  0
   57.2713   55.2856   47.2025 O   0  0  0  0  0  0  0  0  0  0  0  0
   58.7353   55.4478   45.5402 N   0  0  0  0  0  0  0  0  0  0  0  0
   59.8910   56.0707   46.5495 S   0  0  0  0  0  0  0  0  0  0  0  0
   59.6951   55.4303   47.8027 O   0  0  0  0  0  0  0  0  0  0  0  0
   61.0999   56.0644   45.8026 O   0  0  0  0  0  0  0  0  0  0  0  0
   59.5004   57.7685   46.8133 C   0  0  0  0  0  0  0  0  0  0  0  0
   58.8985   58.1641   47.9927 C   0  0  0  0  0  0  0  0  0  0  0  0
   58.5918   59.4961   48.1998 C   0  0  0  0  0  0  0  0  0  0  0  0
   58.8865   60.4330   47.2272 C   0  0  0  0  0  0  0  0  0  0  0  0
   59.4881   60.0386   46.0468 C   0  0  0  0  0  0  0  0  0  0  0  0
   59.8011   58.7068   45.8418 C   0  0  0  0  0  0  0  0  0  0  0  0
   60.5572   58.2108   44.3598 Cl  0  0  0  0  0  0  0  0  0  0  0  0
   52.9492   51.0333   45.9121 H   0  0  0  0  0  0  0  0  0  0  0  0
   51.6282   52.0430   45.2768 H   0  0  0  0  0  0  0  0  0  0  0  0
   53.0111   51.6280   44.2357 H   0  0  0  0  0  0  0  0  0  0  0  0
   51.2858   57.1256   47.9182 H   0  0  0  0  0  0  0  0  0  0  0  0
   52.1565   57.0057   46.3703 H   0  0  0  0  0  0  0  0  0  0  0  0
   51.0966   55.6777   46.9003 H   0  0  0  0  0  0  0  0  0  0  0  0
   56.7220   54.6649   44.2272 H   0  0  0  0  0  0  0  0  0  0  0  0
   58.9435   55.2841   44.6071 H   0  0  0  0  0  0  0  0  0  0  0  0
   58.6674   57.4323   48.7527 H   0  0  0  0  0  0  0  0  0  0  0  0
   58.1215   59.8048   49.1217 H   0  0  0  0  0  0  0  0  0  0  0  0
   58.6464   61.4735   47.3895 H   0  0  0  0  0  0  0  0  0  0  0  0
   59.7176   60.7706   45.2867 H   0  0  0  0  0  0  0  0  0  0  0  0
  1  2  1  0  0  0  0
  2  3  2  0  0  0  0
  3  4  1  0  0  0  0
  4  5  2  0  0  0  0
  5  6  1  0  0  0  0
  6  7  2  0  0  0  0
  2  7  1  0  0  0  0
  6  8  1  0  0  0  0
  8  9  1  0  0  0  0
  4 10  1  0  0  0  0
 10 11  1  0  0  0  0
 11 12  2  0  0  0  0
 11 13  1  0  0  0  0
 13 14  1  0  0  0  0
 14 15  2  0  0  0  0
 14 16  2  0  0  0  0
 14 17  1  0  0  0  0
 17 18  2  0  0  0  0
 18 19  1  0  0  0  0
 19 20  2  0  0  0  0
 20 21  1  0  0  0  0
 21 22  2  0  0  0  0
 17 22  1  0  0  0  0
 22 23  1  0  0  0  0
  1 24  1  0  0  0  0
  1 25  1  0  0  0  0
  1 26  1  0  0  0  0
  9 27  1  0  0  0  0
  9 28  1  0  0  0  0
  9 29  1  0  0  0  0
 10 30  1  0  0  0  0
 13 31  1  0  0  0  0
 18 32  1  0  0  0  0
 19 33  1  0  0  0  0
 20 34  1  0  0  0  0
 21 35  1  0  0  0  0
M  END
> <Gold.Version>
2021.2.0

> <Gold.Id.Protein>
1YHZ|1YHZ_protein|mol2

> <Gold.PLP.Fitness>
47.1858

> <Gold.PLP.PLP>
-41.7176

> <Gold.PLP.part.hbond>
-4.6540

> <Gold.PLP.part.metal>
0.0000

> <Gold.PLP.part.buried>
-5.3215

> <Gold.PLP.part.nonpolar>
-31.9308

> <Gold.PLP.part.repulsive>
0.0610

> <Gold.PLP.ligand.clash>
0.0000

> <Gold.PLP.ligand.torsion>
1.9105

> <Gold.PLP.Chemscore.Hbond>
2.0000

> <Gold.PLP.Chemscore.CHOScore>
0.0000

> <Gold.PLP.Chemscore.Metal>
0.0000

> <Gold.Chemscore.Hbonds>
donor molecule, donor type, donor heavy atom, donor atom, acceptor molecule, acceptor atom, score
      P1  H  2205  5011       L1     8  1.00
      P1  H  4319  5515       L1     8  1.00

> <Gold.PLP.Chemscore.Internal.Correction>
3.2893

> <Gold.Protein.RotatedTorsions>
[ 6671 1667 1666 1664 ] final  -27.06 input   60.00 | X-H torsion
[ 6844 1845 1844 1841 ] final  -71.85 input   60.00 | X-H torsion
[ 5051 2219 2218 2215 ] final  -41.22 input   60.00 | X-H torsion
[ 5018 2233 2232 2231 ] final   58.12 input   59.99 | X-H torsion
[ 5515 4319 4318 4315 ] final  152.83 input   60.00 | X-H torsion
[ 5604 4440 4439 4437 ] final   71.88 input   60.00 | X-H torsion
[ 5608 4442 4441 4439 ] final  147.64 input   60.00 | X-H torsion
[ 5645 4474 4473 4472 ] final  -66.28 input   60.00 | X-H torsion
[ 5630 4476 4475 4473 ] final -100.07 input   60.00 | X-H torsion
[ 5635 4478 4477 4475 ] final -164.89 input   60.00 | X-H torsion

> <Gold.Protein.ActiveResidues>
 TYR305  THR331  LEU332  MET333  LEU349  GLY350  MET351  HIS352  GLY353  ASN358 
 VAL372  ARG373  PHE374  ASP375  ASP376  ARG377  VAL378  THR379  GLY380  LYS381 
 LEU382  PHE385  LYS403  ASN404  MET490  GLY508  GLY509  TRP574  ILE651  PRO652 
 SER653  GLY654  GLY655  FAD701 

> <Gold.Protein.RotatedAtoms>
   42.4178   53.4292   59.2484 H   0  0  0  0  0  0  0  0  0  0  0  0  # atno 5018 bound_to 2233
   41.2325   53.7503   58.1352 H   0  0  0  0  0  0  0  0  0  0  0  0  # atno 5019 bound_to 2233
   42.6546   53.0489   57.6527 H   0  0  0  0  0  0  0  0  0  0  0  0  # atno 5020 bound_to 2233
   51.4334   61.3685   55.8736 H   0  0  0  0  0  0  0  0  0  0  0  0  # atno 5051 bound_to 2219
   51.9823   55.1945   49.5918 H   0  0  0  0  0  0  0  0  0  0  0  0  # atno 5515 bound_to 4319
   55.0776   74.4214   54.7957 H   0  0  0  0  0  0  0  0  0  0  0  0  # atno 5604 bound_to 4440
   56.7632   77.2438   53.3983 H   0  0  0  0  0  0  0  0  0  0  0  0  # atno 5608 bound_to 4442
   60.9608   65.6636   51.3542 H   0  0  0  0  0  0  0  0  0  0  0  0  # atno 5630 bound_to 4476
   58.8480   64.9099   55.1483 H   0  0  0  0  0  0  0  0  0  0  0  0  # atno 5635 bound_to 4478
   59.5441   63.3649   49.7002 H   0  0  0  0  0  0  0  0  0  0  0  0  # atno 5645 bound_to 4474
   56.0433   66.4137   58.0543 H   0  0  0  0  0  0  0  0  0  0  0  0  # atno 6671 bound_to 1667
   61.8064   67.5338   57.8870 H   0  0  0  0  0  0  0  0  0  0  0  0  # atno 6844 bound_to 1845
   54.5766   67.0183   58.4166 LP  0  0  0  0  0  0  0  0  0  0  0  0  # atno 8952 bound_to 1667
   54.8693   65.4208   58.5872 LP  0  0  0  0  0  0  0  0  0  0  0  0  # atno 8953 bound_to 1667
   61.0775   67.4502   56.4344 LP  0  0  0  0  0  0  0  0  0  0  0  0  # atno 8956 bound_to 1845
   62.4899   66.6709   56.6884 LP  0  0  0  0  0  0  0  0  0  0  0  0  # atno 8957 bound_to 1845
   50.1687   62.3795   56.0361 LP  0  0  0  0  0  0  0  0  0  0  0  0  # atno 9001 bound_to 2219
   49.9849   60.7837   56.3294 LP  0  0  0  0  0  0  0  0  0  0  0  0  # atno 9002 bound_to 2219
   51.7464   55.5841   51.1541 LP  0  0  0  0  0  0  0  0  0  0  0  0  # atno 9031 bound_to 4319
   50.6245   54.7130   50.3485 LP  0  0  0  0  0  0  0  0  0  0  0  0  # atno 9032 bound_to 4319
   55.0693   72.9141   54.1825 LP  0  0  0  0  0  0  0  0  0  0  0  0  # atno 9039 bound_to 4440
   54.7311   74.1912   53.2226 LP  0  0  0  0  0  0  0  0  0  0  0  0  # atno 9040 bound_to 4440
   55.6204   76.1979   52.9002 LP  0  0  0  0  0  0  0  0  0  0  0  0  # atno 9041 bound_to 4442
   56.9721   76.4191   52.0111 LP  0  0  0  0  0  0  0  0  0  0  0  0  # atno 9042 bound_to 4442
   58.0748   63.0086   50.3019 LP  0  0  0  0  0  0  0  0  0  0  0  0  # atno 9052 bound_to 4474
   59.2118   61.8436   50.1727 LP  0  0  0  0  0  0  0  0  0  0  0  0  # atno 9053 bound_to 4474
   59.6928   66.0802   50.4232 LP  0  0  0  0  0  0  0  0  0  0  0  0  # atno 9054 bound_to 4476
   60.4648   64.6637   50.1700 LP  0  0  0  0  0  0  0  0  0  0  0  0  # atno 9055 bound_to 4476
   59.3050   63.5392   54.3996 LP  0  0  0  0  0  0  0  0  0  0  0  0  # atno 9056 bound_to 4478
   57.9059   64.2720   53.9849 LP  0  0  0  0  0  0  0  0  0  0  0  0  # atno 9057 bound_to 4478

$$$$
