C12H12ClN5O4S|Chlorsulfuron|mol|1|dock23
  -GOLD-   23022 1383D 1   1.00000     0.00000
 
 35 36  0  0  0  0  0  0  0  0  1 V2000
   49.1238   57.4484   44.6081 C   0  0  0  0  0  0  0  0  0  0  0  0
   50.1881   57.2705   45.6602 C   0  0  0  0  0  0  0  0  0  0  0  0
   50.8083   58.3268   46.1556 N   0  0  0  0  0  0  0  0  0  0  0  0
   51.7481   58.1727   47.0842 C   0  0  0  0  0  0  0  0  0  0  0  0
   52.0621   56.9558   47.5128 N   0  0  0  0  0  0  0  0  0  0  0  0
   51.4369   55.8974   47.0129 C   0  0  0  0  0  0  0  0  0  0  0  0
   50.4952   56.0584   46.0892 N   0  0  0  0  0  0  0  0  0  0  0  0
   51.7547   54.6558   47.4468 O   0  0  0  0  0  0  0  0  0  0  0  0
   53.1587   54.4917   47.2373 C   0  0  0  0  0  0  0  0  0  0  0  0
   52.3986   59.2802   47.6032 N   0  0  0  0  0  0  0  0  0  0  0  0
   53.3963   59.8624   46.9089 C   0  0  0  0  0  0  0  0  0  0  0  0
   53.7255   59.4156   45.8273 O   0  0  0  0  0  0  0  0  0  0  0  0
   54.0292   60.9400   47.4138 N   0  0  0  0  0  0  0  0  0  0  0  0
   55.3361   61.5788   46.6224 S   0  0  0  0  0  0  0  0  0  0  0  0
   55.0412   61.4667   45.2369 O   0  0  0  0  0  0  0  0  0  0  0  0
   55.6461   62.7876   47.3022 O   0  0  0  0  0  0  0  0  0  0  0  0
   56.7027   60.5043   46.9094 C   0  0  0  0  0  0  0  0  0  0  0  0
   57.5199   60.7032   48.0059 C   0  0  0  0  0  0  0  0  0  0  0  0
   58.5924   59.8602   48.2312 C   0  0  0  0  0  0  0  0  0  0  0  0
   58.8480   58.8183   47.3597 C   0  0  0  0  0  0  0  0  0  0  0  0
   58.0316   58.6184   46.2623 C   0  0  0  0  0  0  0  0  0  0  0  0
   56.9545   59.4577   46.0400 C   0  0  0  0  0  0  0  0  0  0  0  0
   55.9284   59.2070   44.6623 Cl  0  0  0  0  0  0  0  0  0  0  0  0
   49.5814   57.4168   43.6193 H   0  0  0  0  0  0  0  0  0  0  0  0
   48.3899   56.6472   44.6946 H   0  0  0  0  0  0  0  0  0  0  0  0
   48.6304   58.4100   44.7494 H   0  0  0  0  0  0  0  0  0  0  0  0
   53.4628   53.5006   47.5738 H   0  0  0  0  0  0  0  0  0  0  0  0
   53.3827   54.5998   46.1761 H   0  0  0  0  0  0  0  0  0  0  0  0
   53.7014   55.2497   47.8022 H   0  0  0  0  0  0  0  0  0  0  0  0
   52.1359   59.6368   48.4663 H   0  0  0  0  0  0  0  0  0  0  0  0
   53.7191   61.3412   48.2406 H   0  0  0  0  0  0  0  0  0  0  0  0
   57.3211   61.5177   48.6868 H   0  0  0  0  0  0  0  0  0  0  0  0
   59.2308   60.0161   49.0882 H   0  0  0  0  0  0  0  0  0  0  0  0
   59.6861   58.1602   47.5361 H   0  0  0  0  0  0  0  0  0  0  0  0
   58.2319   57.8048   45.5811 H   0  0  0  0  0  0  0  0  0  0  0  0
  1  2  1  0  0  0  0
  2  3  2  0  0  0  0
  3  4  1  0  0  0  0
  4  5  2  0  0  0  0
  5  6  1  0  0  0  0
  6  7  2  0  0  0  0
  2  7  1  0  0  0  0
  6  8  1  0  0  0  0
  8  9  1  0  0  0  0
  4 10  1  0  0  0  0
 10 11  1  0  0  0  0
 11 12  2  0  0  0  0
 11 13  1  0  0  0  0
 13 14  1  0  0  0  0
 14 15  2  0  0  0  0
 14 16  2  0  0  0  0
 14 17  1  0  0  0  0
 17 18  2  0  0  0  0
 18 19  1  0  0  0  0
 19 20  2  0  0  0  0
 20 21  1  0  0  0  0
 21 22  2  0  0  0  0
 17 22  1  0  0  0  0
 22 23  1  0  0  0  0
  1 24  1  0  0  0  0
  1 25  1  0  0  0  0
  1 26  1  0  0  0  0
  9 27  1  0  0  0  0
  9 28  1  0  0  0  0
  9 29  1  0  0  0  0
 10 30  1  0  0  0  0
 13 31  1  0  0  0  0
 18 32  1  0  0  0  0
 19 33  1  0  0  0  0
 20 34  1  0  0  0  0
 21 35  1  0  0  0  0
M  END
> <Gold.Version>
2021.2.0

> <Gold.Id.Protein>
1YHZ|1YHZ_protein|mol2

> <Gold.PLP.Fitness>
34.7852

> <Gold.PLP.PLP>
-27.4073

> <Gold.PLP.part.hbond>
-4.2766

> <Gold.PLP.part.metal>
0.0000

> <Gold.PLP.part.buried>
-5.1662

> <Gold.PLP.part.nonpolar>
-19.1918

> <Gold.PLP.part.repulsive>
0.4588

> <Gold.PLP.ligand.clash>
0.2129

> <Gold.PLP.ligand.torsion>
2.2068

> <Gold.PLP.Chemscore.Hbond>
2.9051

> <Gold.PLP.Chemscore.CHOScore>
0.0000

> <Gold.PLP.Chemscore.Metal>
0.0000

> <Gold.Chemscore.Hbonds>
donor molecule, donor type, donor heavy atom, donor atom, acceptor molecule, acceptor atom, score
      L1  H    10    30       P1  2195  0.11
      L1  H    13    31       P1  2194  1.00
      P1  H  2205  5011       L1     5  0.80
      P1  H  4319  5515       L1     8  1.00

> <Gold.PLP.Chemscore.Internal.Correction>
3.2893

> <Gold.Protein.RotatedTorsions>
[ 6671 1667 1666 1664 ] final -126.80 input   60.00 | X-H torsion
[ 6844 1845 1844 1841 ] final   96.88 input   60.00 | X-H torsion
[ 5051 2219 2218 2215 ] final   45.46 input   60.00 | X-H torsion
[ 5018 2233 2232 2231 ] final  -94.99 input   59.99 | X-H torsion
[ 5515 4319 4318 4315 ] final -179.60 input   60.00 | X-H torsion
[ 5604 4440 4439 4437 ] final  156.69 input   60.00 | X-H torsion
[ 5608 4442 4441 4439 ] final  -39.81 input   60.00 | X-H torsion
[ 5645 4474 4473 4472 ] final -159.87 input   60.00 | X-H torsion
[ 5630 4476 4475 4473 ] final  -50.02 input   60.00 | X-H torsion
[ 5635 4478 4477 4475 ] final -158.99 input   60.00 | X-H torsion

> <Gold.Protein.ActiveResidues>
 TYR305  THR331  LEU332  MET333  LEU349  GLY350  MET351  HIS352  GLY353  ASN358 
 VAL372  ARG373  PHE374  ASP375  ASP376  ARG377  VAL378  THR379  GLY380  LYS381 
 LEU382  PHE385  LYS403  ASN404  MET490  GLY508  GLY509  TRP574  ILE651  PRO652 
 SER653  GLY654  GLY655  FAD701 

> <Gold.Protein.RotatedAtoms>
   42.1908   53.2088   57.4142 H   0  0  0  0  0  0  0  0  0  0  0  0  # atno 5018 bound_to 2233
   42.8149   53.2048   58.9497 H   0  0  0  0  0  0  0  0  0  0  0  0  # atno 5019 bound_to 2233
   41.2990   53.8151   58.6727 H   0  0  0  0  0  0  0  0  0  0  0  0  # atno 5020 bound_to 2233
   50.4785   60.5889   56.2366 H   0  0  0  0  0  0  0  0  0  0  0  0  # atno 5051 bound_to 2219
   51.6246   54.9598   49.4657 H   0  0  0  0  0  0  0  0  0  0  0  0  # atno 5515 bound_to 4319
   54.7786   74.6251   53.5860 H   0  0  0  0  0  0  0  0  0  0  0  0  # atno 5604 bound_to 4440
   56.2466   76.0190   52.0852 H   0  0  0  0  0  0  0  0  0  0  0  0  # atno 5608 bound_to 4442
   61.0898   64.9713   50.9915 H   0  0  0  0  0  0  0  0  0  0  0  0  # atno 5630 bound_to 4476
   58.7648   64.9495   55.1205 H   0  0  0  0  0  0  0  0  0  0  0  0  # atno 5635 bound_to 4478
   58.2574   63.3683   50.1552 H   0  0  0  0  0  0  0  0  0  0  0  0  # atno 5645 bound_to 4474
   54.8518   67.1656   58.3076 H   0  0  0  0  0  0  0  0  0  0  0  0  # atno 6671 bound_to 1667
   61.9331   66.8206   56.1700 H   0  0  0  0  0  0  0  0  0  0  0  0  # atno 6844 bound_to 1845
   54.5932   65.5951   58.6459 LP  0  0  0  0  0  0  0  0  0  0  0  0  # atno 8952 bound_to 1667
   56.0526   66.0868   58.1028 LP  0  0  0  0  0  0  0  0  0  0  0  0  # atno 8953 bound_to 1667
   62.4152   67.0913   57.7005 LP  0  0  0  0  0  0  0  0  0  0  0  0  # atno 8956 bound_to 1845
   61.0247   67.7480   57.1513 LP  0  0  0  0  0  0  0  0  0  0  0  0  # atno 8957 bound_to 1845
   51.3482   61.8967   55.8112 LP  0  0  0  0  0  0  0  0  0  0  0  0  # atno 9001 bound_to 2219
   49.7671   62.0516   56.1888 LP  0  0  0  0  0  0  0  0  0  0  0  0  # atno 9002 bound_to 2219
   52.0765   55.6657   50.8605 LP  0  0  0  0  0  0  0  0  0  0  0  0  # atno 9031 bound_to 4319
   50.6547   54.8678   50.7691 LP  0  0  0  0  0  0  0  0  0  0  0  0  # atno 9032 bound_to 4319
   55.1672   73.8941   54.9869 LP  0  0  0  0  0  0  0  0  0  0  0  0  # atno 9039 bound_to 4440
   54.9343   73.0061   53.6365 LP  0  0  0  0  0  0  0  0  0  0  0  0  # atno 9040 bound_to 4440
   57.2616   77.1054   52.7468 LP  0  0  0  0  0  0  0  0  0  0  0  0  # atno 9041 bound_to 4442
   55.8512   76.7450   53.4868 LP  0  0  0  0  0  0  0  0  0  0  0  0  # atno 9042 bound_to 4442
   58.8057   61.8447   50.3163 LP  0  0  0  0  0  0  0  0  0  0  0  0  # atno 9052 bound_to 4474
   59.7767   63.0040   49.7001 LP  0  0  0  0  0  0  0  0  0  0  0  0  # atno 9053 bound_to 4474
   60.1588   66.3054   51.0301 LP  0  0  0  0  0  0  0  0  0  0  0  0  # atno 9054 bound_to 4476
   59.8688   65.1356   49.9283 LP  0  0  0  0  0  0  0  0  0  0  0  0  # atno 9055 bound_to 4476
   59.3577   63.5810   54.4696 LP  0  0  0  0  0  0  0  0  0  0  0  0  # atno 9056 bound_to 4478
   57.9371   64.1903   53.9429 LP  0  0  0  0  0  0  0  0  0  0  0  0  # atno 9057 bound_to 4478

$$$$
