C12H12ClN5O4S|Chlorsulfuron|mol|1|dock15
  -GOLD-   23022 1373D 1   1.00000     0.00000
 
 35 36  0  0  0  0  0  0  0  0  1 V2000
   48.8048   50.3179   46.8270 C   0  0  0  0  0  0  0  0  0  0  0  0
   49.3738   51.6577   47.2175 C   0  0  0  0  0  0  0  0  0  0  0  0
   50.6402   51.9356   46.9629 N   0  0  0  0  0  0  0  0  0  0  0  0
   51.1449   53.1174   47.3064 C   0  0  0  0  0  0  0  0  0  0  0  0
   50.3743   54.0175   47.9056 N   0  0  0  0  0  0  0  0  0  0  0  0
   49.1029   53.7347   48.1596 C   0  0  0  0  0  0  0  0  0  0  0  0
   48.6032   52.5543   47.8090 N   0  0  0  0  0  0  0  0  0  0  0  0
   48.3148   54.6493   48.7705 O   0  0  0  0  0  0  0  0  0  0  0  0
   47.9125   54.0803   50.0181 C   0  0  0  0  0  0  0  0  0  0  0  0
   52.4728   53.4083   47.0398 N   0  0  0  0  0  0  0  0  0  0  0  0
   53.0744   52.8785   45.9564 C   0  0  0  0  0  0  0  0  0  0  0  0
   52.4518   52.1451   45.2132 O   0  0  0  0  0  0  0  0  0  0  0  0
   54.3664   53.1615   45.6970 N   0  0  0  0  0  0  0  0  0  0  0  0
   55.1417   52.4131   44.4395 S   0  0  0  0  0  0  0  0  0  0  0  0
   54.6247   51.0901   44.3997 O   0  0  0  0  0  0  0  0  0  0  0  0
   55.1141   53.3398   43.3626 O   0  0  0  0  0  0  0  0  0  0  0  0
   56.8379   52.2510   44.8881 C   0  0  0  0  0  0  0  0  0  0  0  0
   57.4093   53.1509   45.7674 C   0  0  0  0  0  0  0  0  0  0  0  0
   58.7403   53.0239   46.1193 C   0  0  0  0  0  0  0  0  0  0  0  0
   59.5002   51.9971   45.5917 C   0  0  0  0  0  0  0  0  0  0  0  0
   58.9300   51.0964   44.7116 C   0  0  0  0  0  0  0  0  0  0  0  0
   57.5966   51.2192   44.3641 C   0  0  0  0  0  0  0  0  0  0  0  0
   56.8795   50.0882   43.2594 Cl  0  0  0  0  0  0  0  0  0  0  0  0
   48.9354   49.6142   47.6490 H   0  0  0  0  0  0  0  0  0  0  0  0
   47.7430   50.4247   46.6054 H   0  0  0  0  0  0  0  0  0  0  0  0
   49.3247   49.9458   45.9442 H   0  0  0  0  0  0  0  0  0  0  0  0
   47.2723   54.7849   50.5491 H   0  0  0  0  0  0  0  0  0  0  0  0
   47.3635   53.1565   49.8359 H   0  0  0  0  0  0  0  0  0  0  0  0
   48.7949   53.8657   50.6209 H   0  0  0  0  0  0  0  0  0  0  0  0
   52.9697   53.9935   47.6329 H   0  0  0  0  0  0  0  0  0  0  0  0
   54.8420   53.8036   46.2468 H   0  0  0  0  0  0  0  0  0  0  0  0
   56.8161   53.9539   46.1795 H   0  0  0  0  0  0  0  0  0  0  0  0
   59.1864   53.7275   46.8066 H   0  0  0  0  0  0  0  0  0  0  0  0
   60.5400   51.8985   45.8668 H   0  0  0  0  0  0  0  0  0  0  0  0
   59.5241   50.2946   44.2988 H   0  0  0  0  0  0  0  0  0  0  0  0
  1  2  1  0  0  0  0
  2  3  2  0  0  0  0
  3  4  1  0  0  0  0
  4  5  2  0  0  0  0
  5  6  1  0  0  0  0
  6  7  2  0  0  0  0
  2  7  1  0  0  0  0
  6  8  1  0  0  0  0
  8  9  1  0  0  0  0
  4 10  1  0  0  0  0
 10 11  1  0  0  0  0
 11 12  2  0  0  0  0
 11 13  1  0  0  0  0
 13 14  1  0  0  0  0
 14 15  2  0  0  0  0
 14 16  2  0  0  0  0
 14 17  1  0  0  0  0
 17 18  2  0  0  0  0
 18 19  1  0  0  0  0
 19 20  2  0  0  0  0
 20 21  1  0  0  0  0
 21 22  2  0  0  0  0
 17 22  1  0  0  0  0
 22 23  1  0  0  0  0
  1 24  1  0  0  0  0
  1 25  1  0  0  0  0
  1 26  1  0  0  0  0
  9 27  1  0  0  0  0
  9 28  1  0  0  0  0
  9 29  1  0  0  0  0
 10 30  1  0  0  0  0
 13 31  1  0  0  0  0
 18 32  1  0  0  0  0
 19 33  1  0  0  0  0
 20 34  1  0  0  0  0
 21 35  1  0  0  0  0
M  END
> <Gold.Version>
2021.2.0

> <Gold.Id.Protein>
1YHZ|1YHZ_protein|mol2

> <Gold.PLP.Fitness>
41.2806

> <Gold.PLP.PLP>
-39.0437

> <Gold.PLP.part.hbond>
-1.0000

> <Gold.PLP.part.metal>
0.0000

> <Gold.PLP.part.buried>
-4.2936

> <Gold.PLP.part.nonpolar>
-33.3927

> <Gold.PLP.part.repulsive>
0.0558

> <Gold.PLP.ligand.clash>
0.0000

> <Gold.PLP.ligand.torsion>
2.0262

> <Gold.PLP.Chemscore.Hbond>
1.0000

> <Gold.PLP.Chemscore.CHOScore>
0.0000

> <Gold.PLP.Chemscore.Metal>
0.0000

> <Gold.Chemscore.Hbonds>
donor molecule, donor type, donor heavy atom, donor atom, acceptor molecule, acceptor atom, score
      P1  H  4319  5515       L1     5  1.00

> <Gold.PLP.Chemscore.Internal.Correction>
3.2893

> <Gold.Protein.RotatedTorsions>
[ 6671 1667 1666 1664 ] final  133.75 input   60.00 | X-H torsion
[ 6844 1845 1844 1841 ] final  151.54 input   60.00 | X-H torsion
[ 5051 2219 2218 2215 ] final   -1.40 input   60.00 | X-H torsion
[ 5018 2233 2232 2231 ] final   86.40 input   59.99 | X-H torsion
[ 5515 4319 4318 4315 ] final -130.94 input   60.00 | X-H torsion
[ 5604 4440 4439 4437 ] final  150.40 input   60.00 | X-H torsion
[ 5608 4442 4441 4439 ] final  112.98 input   60.00 | X-H torsion
[ 5645 4474 4473 4472 ] final   -4.39 input   60.00 | X-H torsion
[ 5630 4476 4475 4473 ] final  -64.92 input   60.00 | X-H torsion
[ 5635 4478 4477 4475 ] final -156.40 input   60.00 | X-H torsion

> <Gold.Protein.ActiveResidues>
 TYR305  THR331  LEU332  MET333  LEU349  GLY350  MET351  HIS352  GLY353  ASN358 
 VAL372  ARG373  PHE374  ASP375  ASP376  ARG377  VAL378  THR379  GLY380  LYS381 
 LEU382  PHE385  LYS403  ASN404  MET490  GLY508  GLY509  TRP574  ILE651  PRO652 
 SER653  GLY654  GLY655  FAD701 

> <Gold.Protein.RotatedAtoms>
   41.9911   53.6187   59.2727 H   0  0  0  0  0  0  0  0  0  0  0  0  # atno 5018 bound_to 2233
   41.4010   53.6056   57.7238 H   0  0  0  0  0  0  0  0  0  0  0  0  # atno 5019 bound_to 2233
   42.9128   53.0041   58.0399 H   0  0  0  0  0  0  0  0  0  0  0  0  # atno 5020 bound_to 2233
   51.1567   60.8155   56.0294 H   0  0  0  0  0  0  0  0  0  0  0  0  # atno 5051 bound_to 2219
   50.9543   54.6852   49.7311 H   0  0  0  0  0  0  0  0  0  0  0  0  # atno 5515 bound_to 4319
   54.7943   74.6761   53.6737 H   0  0  0  0  0  0  0  0  0  0  0  0  # atno 5604 bound_to 4440
   56.2676   77.0611   53.5771 H   0  0  0  0  0  0  0  0  0  0  0  0  # atno 5608 bound_to 4442
   61.1085   65.1606   51.1425 H   0  0  0  0  0  0  0  0  0  0  0  0  # atno 5630 bound_to 4476
   58.7279   64.9645   55.1062 H   0  0  0  0  0  0  0  0  0  0  0  0  # atno 5635 bound_to 4478
   59.8025   62.4458   49.8246 H   0  0  0  0  0  0  0  0  0  0  0  0  # atno 5645 bound_to 4474
   54.3918   65.8620   58.6681 H   0  0  0  0  0  0  0  0  0  0  0  0  # atno 6671 bound_to 1667
   61.2227   67.2951   56.2654 H   0  0  0  0  0  0  0  0  0  0  0  0  # atno 6844 bound_to 1845
   55.9444   65.7800   58.1876 LP  0  0  0  0  0  0  0  0  0  0  0  0  # atno 8952 bound_to 1667
   55.1646   67.2147   58.1980 LP  0  0  0  0  0  0  0  0  0  0  0  0  # atno 8953 bound_to 1667
   62.5813   66.7083   56.9422 LP  0  0  0  0  0  0  0  0  0  0  0  0  # atno 8956 bound_to 1845
   61.5740   67.6532   57.8135 LP  0  0  0  0  0  0  0  0  0  0  0  0  # atno 8957 bound_to 1845
   50.7905   62.3936   55.8760 LP  0  0  0  0  0  0  0  0  0  0  0  0  # atno 9001 bound_to 2219
   49.6418   61.3265   56.3327 LP  0  0  0  0  0  0  0  0  0  0  0  0  # atno 9002 bound_to 2219
   52.2850   55.5357   50.1235 LP  0  0  0  0  0  0  0  0  0  0  0  0  # atno 9031 bound_to 4319
   51.1212   55.2744   51.2388 LP  0  0  0  0  0  0  0  0  0  0  0  0  # atno 9032 bound_to 4319
   55.1760   73.7911   54.9848 LP  0  0  0  0  0  0  0  0  0  0  0  0  # atno 9039 bound_to 4440
   54.9096   73.0577   53.5503 LP  0  0  0  0  0  0  0  0  0  0  0  0  # atno 9040 bound_to 4440
   55.8362   76.0004   52.4208 LP  0  0  0  0  0  0  0  0  0  0  0  0  # atno 9041 bound_to 4442
   57.2554   76.8006   52.3105 LP  0  0  0  0  0  0  0  0  0  0  0  0  # atno 9042 bound_to 4442
   58.7059   63.6434   49.9292 LP  0  0  0  0  0  0  0  0  0  0  0  0  # atno 9052 bound_to 4474
   58.3205   62.1344   50.4202 LP  0  0  0  0  0  0  0  0  0  0  0  0  # atno 9053 bound_to 4474
   59.9838   66.3021   50.8593 LP  0  0  0  0  0  0  0  0  0  0  0  0  # atno 9054 bound_to 4476
   60.0251   64.9484   49.9470 LP  0  0  0  0  0  0  0  0  0  0  0  0  # atno 9055 bound_to 4476
   59.3785   63.6015   54.5005 LP  0  0  0  0  0  0  0  0  0  0  0  0  # atno 9056 bound_to 4478
   57.9534   64.1546   53.9264 LP  0  0  0  0  0  0  0  0  0  0  0  0  # atno 9057 bound_to 4478

$$$$
