C12H12ClN5O4S|Chlorsulfuron|mol|1|dock13
  -GOLD-   23022 1373D 1   1.00000     0.00000
 
 35 36  0  0  0  0  0  0  0  0  1 V2000
   59.7383   52.0463   45.2220 C   0  0  0  0  0  0  0  0  0  0  0  0
   58.2394   52.0271   45.0671 C   0  0  0  0  0  0  0  0  0  0  0  0
   57.5096   52.9932   45.5961 N   0  0  0  0  0  0  0  0  0  0  0  0
   56.1864   52.9787   45.4609 C   0  0  0  0  0  0  0  0  0  0  0  0
   55.5998   51.9920   44.7936 N   0  0  0  0  0  0  0  0  0  0  0  0
   56.3362   51.0235   44.2637 C   0  0  0  0  0  0  0  0  0  0  0  0
   57.6581   51.0465   44.3976 N   0  0  0  0  0  0  0  0  0  0  0  0
   55.7419   50.0161   43.5834 O   0  0  0  0  0  0  0  0  0  0  0  0
   56.6047   48.8818   43.6879 C   0  0  0  0  0  0  0  0  0  0  0  0
   55.4214   53.9915   46.0161 N   0  0  0  0  0  0  0  0  0  0  0  0
   55.5993   55.2664   45.6168 C   0  0  0  0  0  0  0  0  0  0  0  0
   56.4310   55.5277   44.7696 O   0  0  0  0  0  0  0  0  0  0  0  0
   54.8551   56.2519   46.1569 N   0  0  0  0  0  0  0  0  0  0  0  0
   55.1584   57.8308   45.7604 S   0  0  0  0  0  0  0  0  0  0  0  0
   55.5087   57.8227   44.3833 O   0  0  0  0  0  0  0  0  0  0  0  0
   54.0991   58.5836   46.3352 O   0  0  0  0  0  0  0  0  0  0  0  0
   56.6155   58.3197   46.6220 C   0  0  0  0  0  0  0  0  0  0  0  0
   57.6939   57.4591   46.6999 C   0  0  0  0  0  0  0  0  0  0  0  0
   58.8373   57.8425   47.3761 C   0  0  0  0  0  0  0  0  0  0  0  0
   58.9023   59.0866   47.9750 C   0  0  0  0  0  0  0  0  0  0  0  0
   57.8240   59.9482   47.8981 C   0  0  0  0  0  0  0  0  0  0  0  0
   56.6822   59.5676   47.2162 C   0  0  0  0  0  0  0  0  0  0  0  0
   55.3279   60.6493   47.1188 Cl  0  0  0  0  0  0  0  0  0  0  0  0
   60.0167   51.5115   46.1300 H   0  0  0  0  0  0  0  0  0  0  0  0
   60.1989   51.5633   44.3602 H   0  0  0  0  0  0  0  0  0  0  0  0
   60.0836   53.0781   45.2878 H   0  0  0  0  0  0  0  0  0  0  0  0
   56.1652   48.0404   43.1521 H   0  0  0  0  0  0  0  0  0  0  0  0
   57.5751   49.1222   43.2537 H   0  0  0  0  0  0  0  0  0  0  0  0
   56.7319   48.6175   44.7377 H   0  0  0  0  0  0  0  0  0  0  0  0
   54.7577   53.7831   46.6921 H   0  0  0  0  0  0  0  0  0  0  0  0
   54.1417   56.0361   46.7777 H   0  0  0  0  0  0  0  0  0  0  0  0
   57.6435   56.4867   46.2328 H   0  0  0  0  0  0  0  0  0  0  0  0
   59.6799   57.1697   47.4367 H   0  0  0  0  0  0  0  0  0  0  0  0
   59.7956   59.3854   48.5033 H   0  0  0  0  0  0  0  0  0  0  0  0
   57.8746   60.9199   48.3667 H   0  0  0  0  0  0  0  0  0  0  0  0
  1  2  1  0  0  0  0
  2  3  2  0  0  0  0
  3  4  1  0  0  0  0
  4  5  2  0  0  0  0
  5  6  1  0  0  0  0
  6  7  2  0  0  0  0
  2  7  1  0  0  0  0
  6  8  1  0  0  0  0
  8  9  1  0  0  0  0
  4 10  1  0  0  0  0
 10 11  1  0  0  0  0
 11 12  2  0  0  0  0
 11 13  1  0  0  0  0
 13 14  1  0  0  0  0
 14 15  2  0  0  0  0
 14 16  2  0  0  0  0
 14 17  1  0  0  0  0
 17 18  2  0  0  0  0
 18 19  1  0  0  0  0
 19 20  2  0  0  0  0
 20 21  1  0  0  0  0
 21 22  2  0  0  0  0
 17 22  1  0  0  0  0
 22 23  1  0  0  0  0
  1 24  1  0  0  0  0
  1 25  1  0  0  0  0
  1 26  1  0  0  0  0
  9 27  1  0  0  0  0
  9 28  1  0  0  0  0
  9 29  1  0  0  0  0
 10 30  1  0  0  0  0
 13 31  1  0  0  0  0
 18 32  1  0  0  0  0
 19 33  1  0  0  0  0
 20 34  1  0  0  0  0
 21 35  1  0  0  0  0
M  END
> <Gold.Version>
2021.2.0

> <Gold.Id.Protein>
1YHZ|1YHZ_protein|mol2

> <Gold.PLP.Fitness>
40.7316

> <Gold.PLP.PLP>
-42.5949

> <Gold.PLP.part.hbond>
0.0000

> <Gold.PLP.part.metal>
0.0000

> <Gold.PLP.part.buried>
-7.9108

> <Gold.PLP.part.nonpolar>
-34.1502

> <Gold.PLP.part.repulsive>
0.2734

> <Gold.PLP.ligand.clash>
0.0000

> <Gold.PLP.ligand.torsion>
2.5772

> <Gold.PLP.Chemscore.Hbond>
0.0000

> <Gold.PLP.Chemscore.CHOScore>
0.0000

> <Gold.PLP.Chemscore.Metal>
0.0000

> <Gold.PLP.Chemscore.Internal.Correction>
3.2911

> <Gold.Protein.RotatedTorsions>
[ 6671 1667 1666 1664 ] final  -69.01 input   60.00 | X-H torsion
[ 6844 1845 1844 1841 ] final  139.95 input   60.00 | X-H torsion
[ 5051 2219 2218 2215 ] final   67.01 input   60.00 | X-H torsion
[ 5018 2233 2232 2231 ] final  -78.62 input   59.99 | X-H torsion
[ 5515 4319 4318 4315 ] final   19.05 input   60.00 | X-H torsion
[ 5604 4440 4439 4437 ] final  -64.99 input   60.00 | X-H torsion
[ 5608 4442 4441 4439 ] final  -71.62 input   60.00 | X-H torsion
[ 5645 4474 4473 4472 ] final  101.73 input   60.00 | X-H torsion
[ 5630 4476 4475 4473 ] final   76.11 input   60.00 | X-H torsion
[ 5635 4478 4477 4475 ] final  163.05 input   60.00 | X-H torsion

> <Gold.Protein.ActiveResidues>
 TYR305  THR331  LEU332  MET333  LEU349  GLY350  MET351  HIS352  GLY353  ASN358 
 VAL372  ARG373  PHE374  ASP375  ASP376  ARG377  VAL378  THR379  GLY380  LYS381 
 LEU382  PHE385  LYS403  ASN404  MET490  GLY508  GLY509  TRP574  ILE651  PRO652 
 SER653  GLY654  GLY655  FAD701 

> <Gold.Protein.RotatedAtoms>
   42.4339   53.1176   57.4970 H   0  0  0  0  0  0  0  0  0  0  0  0  # atno 5018 bound_to 2233
   42.6408   53.3118   59.1300 H   0  0  0  0  0  0  0  0  0  0  0  0  # atno 5019 bound_to 2233
   41.2299   53.7993   58.4095 H   0  0  0  0  0  0  0  0  0  0  0  0  # atno 5020 bound_to 2233
   50.1493   60.6859   56.3053 H   0  0  0  0  0  0  0  0  0  0  0  0  # atno 5051 bound_to 2219
   51.5512   55.5012   51.2307 H   0  0  0  0  0  0  0  0  0  0  0  0  # atno 5515 bound_to 4319
   55.0086   72.9217   53.9136 H   0  0  0  0  0  0  0  0  0  0  0  0  # atno 5604 bound_to 4440
   56.7039   76.2182   51.9648 H   0  0  0  0  0  0  0  0  0  0  0  0  # atno 5608 bound_to 4442
   59.8164   65.2206   49.9413 H   0  0  0  0  0  0  0  0  0  0  0  0  # atno 5630 bound_to 4476
   59.2493   64.5851   55.1773 H   0  0  0  0  0  0  0  0  0  0  0  0  # atno 5635 bound_to 4478
   58.4953   61.9917   50.3943 H   0  0  0  0  0  0  0  0  0  0  0  0  # atno 5645 bound_to 4474
   55.7062   66.9928   58.0655 H   0  0  0  0  0  0  0  0  0  0  0  0  # atno 6671 bound_to 1667
   61.3503   67.1847   56.1801 H   0  0  0  0  0  0  0  0  0  0  0  0  # atno 6844 bound_to 1845
   54.2721   66.4469   58.6072 LP  0  0  0  0  0  0  0  0  0  0  0  0  # atno 8952 bound_to 1667
   55.5132   65.4090   58.3853 LP  0  0  0  0  0  0  0  0  0  0  0  0  # atno 8953 bound_to 1667
   62.6063   66.7599   57.1238 LP  0  0  0  0  0  0  0  0  0  0  0  0  # atno 8956 bound_to 1845
   61.4205   67.7127   57.7178 LP  0  0  0  0  0  0  0  0  0  0  0  0  # atno 8957 bound_to 1845
   51.4418   61.5581   55.8397 LP  0  0  0  0  0  0  0  0  0  0  0  0  # atno 9001 bound_to 2219
   50.0051   62.2926   56.0911 LP  0  0  0  0  0  0  0  0  0  0  0  0  # atno 9002 bound_to 2219
   50.6811   54.6727   50.1332 LP  0  0  0  0  0  0  0  0  0  0  0  0  # atno 9031 bound_to 4319
   52.1239   55.3155   49.7189 LP  0  0  0  0  0  0  0  0  0  0  0  0  # atno 9032 bound_to 4319
   54.7421   74.4294   53.3627 LP  0  0  0  0  0  0  0  0  0  0  0  0  # atno 9039 bound_to 4440
   55.1277   74.1863   54.9307 LP  0  0  0  0  0  0  0  0  0  0  0  0  # atno 9040 bound_to 4440
   57.0204   77.2545   53.1789 LP  0  0  0  0  0  0  0  0  0  0  0  0  # atno 9041 bound_to 4442
   55.6318   76.3952   53.1761 LP  0  0  0  0  0  0  0  0  0  0  0  0  # atno 9042 bound_to 4442
   59.8360   62.6608   49.7597 LP  0  0  0  0  0  0  0  0  0  0  0  0  # atno 9052 bound_to 4474
   58.5069   63.5743   50.0159 LP  0  0  0  0  0  0  0  0  0  0  0  0  # atno 9053 bound_to 4474
   61.0743   64.8997   50.9224 LP  0  0  0  0  0  0  0  0  0  0  0  0  # atno 9054 bound_to 4476
   60.2358   66.2904   51.0935 LP  0  0  0  0  0  0  0  0  0  0  0  0  # atno 9055 bound_to 4476
   58.9219   63.4498   54.0585 LP  0  0  0  0  0  0  0  0  0  0  0  0  # atno 9056 bound_to 4478
   57.8848   64.6885   54.2967 LP  0  0  0  0  0  0  0  0  0  0  0  0  # atno 9057 bound_to 4478

$$$$
