C12H12ClN5O4S|Chlorsulfuron|mol|1|dock24
  -GOLD-   23022 1383D 1   1.00000     0.00000
 
 35 36  0  0  0  0  0  0  0  0  1 V2000
   48.8605   57.6433   45.0218 C   0  0  0  0  0  0  0  0  0  0  0  0
   50.0511   57.4713   45.9297 C   0  0  0  0  0  0  0  0  0  0  0  0
   50.6887   58.5335   46.3890 N   0  0  0  0  0  0  0  0  0  0  0  0
   51.7398   58.3846   47.1904 C   0  0  0  0  0  0  0  0  0  0  0  0
   52.1475   57.1670   47.5283 N   0  0  0  0  0  0  0  0  0  0  0  0
   51.5045   56.1026   47.0650 C   0  0  0  0  0  0  0  0  0  0  0  0
   50.4518   56.2581   46.2691 N   0  0  0  0  0  0  0  0  0  0  0  0
   51.9174   54.8602   47.4068 O   0  0  0  0  0  0  0  0  0  0  0  0
   53.2659   54.7332   46.9513 C   0  0  0  0  0  0  0  0  0  0  0  0
   52.4084   59.4985   47.6715 N   0  0  0  0  0  0  0  0  0  0  0  0
   53.4454   60.0124   46.9808 C   0  0  0  0  0  0  0  0  0  0  0  0
   53.7940   59.4985   45.9357 O   0  0  0  0  0  0  0  0  0  0  0  0
   54.0960   61.0960   47.4488 N   0  0  0  0  0  0  0  0  0  0  0  0
   55.4467   61.6520   46.6684 S   0  0  0  0  0  0  0  0  0  0  0  0
   55.1977   61.4615   45.2825 O   0  0  0  0  0  0  0  0  0  0  0  0
   55.7651   62.8925   47.2840 O   0  0  0  0  0  0  0  0  0  0  0  0
   56.7729   60.5638   47.0706 C   0  0  0  0  0  0  0  0  0  0  0  0
   57.5593   60.8129   48.1792 C   0  0  0  0  0  0  0  0  0  0  0  0
   58.6000   59.9593   48.4949 C   0  0  0  0  0  0  0  0  0  0  0  0
   58.8548   58.8564   47.7016 C   0  0  0  0  0  0  0  0  0  0  0  0
   58.0691   58.6064   46.5920 C   0  0  0  0  0  0  0  0  0  0  0  0
   57.0236   59.4566   46.2794 C   0  0  0  0  0  0  0  0  0  0  0  0
   56.0361   59.1429   44.8865 Cl  0  0  0  0  0  0  0  0  0  0  0  0
   49.1947   57.6657   43.9846 H   0  0  0  0  0  0  0  0  0  0  0  0
   48.1720   56.8103   45.1638 H   0  0  0  0  0  0  0  0  0  0  0  0
   48.3537   58.5783   45.2605 H   0  0  0  0  0  0  0  0  0  0  0  0
   53.6435   53.7428   47.2056 H   0  0  0  0  0  0  0  0  0  0  0  0
   53.2984   54.8680   45.8701 H   0  0  0  0  0  0  0  0  0  0  0  0
   53.8844   55.4920   47.4307 H   0  0  0  0  0  0  0  0  0  0  0  0
   52.1303   59.9085   48.5054 H   0  0  0  0  0  0  0  0  0  0  0  0
   53.7730   61.5502   48.2427 H   0  0  0  0  0  0  0  0  0  0  0  0
   57.3611   61.6749   48.7991 H   0  0  0  0  0  0  0  0  0  0  0  0
   59.2144   60.1543   49.3614 H   0  0  0  0  0  0  0  0  0  0  0  0
   59.6681   58.1901   47.9485 H   0  0  0  0  0  0  0  0  0  0  0  0
   58.2688   57.7451   45.9718 H   0  0  0  0  0  0  0  0  0  0  0  0
  1  2  1  0  0  0  0
  2  3  2  0  0  0  0
  3  4  1  0  0  0  0
  4  5  2  0  0  0  0
  5  6  1  0  0  0  0
  6  7  2  0  0  0  0
  2  7  1  0  0  0  0
  6  8  1  0  0  0  0
  8  9  1  0  0  0  0
  4 10  1  0  0  0  0
 10 11  1  0  0  0  0
 11 12  2  0  0  0  0
 11 13  1  0  0  0  0
 13 14  1  0  0  0  0
 14 15  2  0  0  0  0
 14 16  2  0  0  0  0
 14 17  1  0  0  0  0
 17 18  2  0  0  0  0
 18 19  1  0  0  0  0
 19 20  2  0  0  0  0
 20 21  1  0  0  0  0
 21 22  2  0  0  0  0
 17 22  1  0  0  0  0
 22 23  1  0  0  0  0
  1 24  1  0  0  0  0
  1 25  1  0  0  0  0
  1 26  1  0  0  0  0
  9 27  1  0  0  0  0
  9 28  1  0  0  0  0
  9 29  1  0  0  0  0
 10 30  1  0  0  0  0
 13 31  1  0  0  0  0
 18 32  1  0  0  0  0
 19 33  1  0  0  0  0
 20 34  1  0  0  0  0
 21 35  1  0  0  0  0
M  END
> <Gold.Version>
2021.2.0

> <Gold.Id.Protein>
1YHZ|1YHZ_protein|mol2

> <Gold.PLP.Fitness>
34.4803

> <Gold.PLP.PLP>
-27.5331

> <Gold.PLP.part.hbond>
-4.9427

> <Gold.PLP.part.metal>
0.0000

> <Gold.PLP.part.buried>
-4.0021

> <Gold.PLP.part.nonpolar>
-20.1403

> <Gold.PLP.part.repulsive>
0.4827

> <Gold.PLP.ligand.clash>
0.1167

> <Gold.PLP.ligand.torsion>
2.2167

> <Gold.PLP.Chemscore.Hbond>
2.7360

> <Gold.PLP.Chemscore.CHOScore>
0.0000

> <Gold.PLP.Chemscore.Metal>
0.0000

> <Gold.Chemscore.Hbonds>
donor molecule, donor type, donor heavy atom, donor atom, acceptor molecule, acceptor atom, score
      L1  H    13    31       P1  2194  1.00
      P1  H  2205  5011       L1     5  0.74
      P1  H  4319  5515       L1     8  1.00

> <Gold.PLP.Chemscore.Internal.Correction>
3.2893

> <Gold.Protein.RotatedTorsions>
[ 6671 1667 1666 1664 ] final  139.70 input   60.00 | X-H torsion
[ 6844 1845 1844 1841 ] final -175.36 input   60.00 | X-H torsion
[ 5051 2219 2218 2215 ] final  118.03 input   60.00 | X-H torsion
[ 5018 2233 2232 2231 ] final -174.44 input   59.99 | X-H torsion
[ 5515 4319 4318 4315 ] final -174.83 input   60.00 | X-H torsion
[ 5604 4440 4439 4437 ] final   34.54 input   60.00 | X-H torsion
[ 5608 4442 4441 4439 ] final  -25.34 input   60.00 | X-H torsion
[ 5645 4474 4473 4472 ] final -169.02 input   60.00 | X-H torsion
[ 5630 4476 4475 4473 ] final  -86.72 input   60.00 | X-H torsion
[ 5635 4478 4477 4475 ] final -113.58 input   60.00 | X-H torsion

> <Gold.Protein.ActiveResidues>
 TYR305  THR331  LEU332  MET333  LEU349  GLY350  MET351  HIS352  GLY353  ASN358 
 VAL372  ARG373  PHE374  ASP375  ASP376  ARG377  VAL378  THR379  GLY380  LYS381 
 LEU382  PHE385  LYS403  ASN404  MET490  GLY508  GLY509  TRP574  ILE651  PRO652 
 SER653  GLY654  GLY655  FAD701 

> <Gold.Protein.RotatedAtoms>
   41.2575   53.7191   58.0179 H   0  0  0  0  0  0  0  0  0  0  0  0  # atno 5018 bound_to 2233
   42.7385   53.0279   57.7418 H   0  0  0  0  0  0  0  0  0  0  0  0  # atno 5019 bound_to 2233
   42.3089   53.4816   59.2770 H   0  0  0  0  0  0  0  0  0  0  0  0  # atno 5020 bound_to 2233
   49.6508   61.3191   56.3340 H   0  0  0  0  0  0  0  0  0  0  0  0  # atno 5051 bound_to 2219
   51.5561   54.9224   49.4645 H   0  0  0  0  0  0  0  0  0  0  0  0  # atno 5515 bound_to 4319
   55.1713   73.8590   54.9804 H   0  0  0  0  0  0  0  0  0  0  0  0  # atno 5604 bound_to 4440
   56.0511   75.9864   52.2130 H   0  0  0  0  0  0  0  0  0  0  0  0  # atno 5608 bound_to 4442
   61.0471   65.4707   51.3016 H   0  0  0  0  0  0  0  0  0  0  0  0  # atno 5630 bound_to 4476
   58.1617   64.9877   54.7239 H   0  0  0  0  0  0  0  0  0  0  0  0  # atno 5635 bound_to 4478
   58.1777   63.2547   50.2101 H   0  0  0  0  0  0  0  0  0  0  0  0  # atno 5645 bound_to 4474
   54.3497   65.9496   58.6670 H   0  0  0  0  0  0  0  0  0  0  0  0  # atno 6671 bound_to 1667
   60.9994   67.5784   56.6584 H   0  0  0  0  0  0  0  0  0  0  0  0  # atno 6844 bound_to 1845
   55.8936   65.7015   58.2167 LP  0  0  0  0  0  0  0  0  0  0  0  0  # atno 8952 bound_to 1667
   55.2579   67.2050   58.1701 LP  0  0  0  0  0  0  0  0  0  0  0  0  # atno 8953 bound_to 1667
   62.3415   66.6791   56.4625 LP  0  0  0  0  0  0  0  0  0  0  0  0  # atno 8956 bound_to 1845
   62.0386   67.3970   57.8975 LP  0  0  0  0  0  0  0  0  0  0  0  0  # atno 8957 bound_to 1845
   51.1672   60.8165   56.0241 LP  0  0  0  0  0  0  0  0  0  0  0  0  # atno 9001 bound_to 2219
   50.7817   62.3965   55.8778 LP  0  0  0  0  0  0  0  0  0  0  0  0  # atno 9002 bound_to 2219
   52.1210   55.6684   50.7958 LP  0  0  0  0  0  0  0  0  0  0  0  0  # atno 9031 bound_to 4319
   50.6792   54.9027   50.8351 LP  0  0  0  0  0  0  0  0  0  0  0  0  # atno 9032 bound_to 4319
   54.9258   73.0226   53.6064 LP  0  0  0  0  0  0  0  0  0  0  0  0  # atno 9039 bound_to 4440
   54.7802   74.6491   53.6127 LP  0  0  0  0  0  0  0  0  0  0  0  0  # atno 9040 bound_to 4440
   57.2926   76.9849   52.5445 LP  0  0  0  0  0  0  0  0  0  0  0  0  # atno 9041 bound_to 4442
   56.0170   76.8982   53.5604 LP  0  0  0  0  0  0  0  0  0  0  0  0  # atno 9042 bound_to 4442
   58.9474   61.8223   50.2714 LP  0  0  0  0  0  0  0  0  0  0  0  0  # atno 9052 bound_to 4474
   59.7153   63.1408   49.6897 LP  0  0  0  0  0  0  0  0  0  0  0  0  # atno 9053 bound_to 4474
   59.7781   66.1974   50.5877 LP  0  0  0  0  0  0  0  0  0  0  0  0  # atno 9054 bound_to 4476
   60.2925   64.7408   50.0583 LP  0  0  0  0  0  0  0  0  0  0  0  0  # atno 9055 bound_to 4476
   59.4977   64.0915   54.9691 LP  0  0  0  0  0  0  0  0  0  0  0  0  # atno 9056 bound_to 4478
   58.4044   63.6413   53.8427 LP  0  0  0  0  0  0  0  0  0  0  0  0  # atno 9057 bound_to 4478

$$$$
