C12H12ClN5O4S|Chlorsulfuron|mol|1|dock3
  -GOLD-   23022 1363D 1   1.00000     0.00000
 
 35 36  0  0  0  0  0  0  0  0  1 V2000
   53.9052   50.0729   43.9990 C   0  0  0  0  0  0  0  0  0  0  0  0
   55.1056   50.9327   44.3006 C   0  0  0  0  0  0  0  0  0  0  0  0
   54.9395   52.1460   44.7967 N   0  0  0  0  0  0  0  0  0  0  0  0
   55.9972   52.9070   45.0638 C   0  0  0  0  0  0  0  0  0  0  0  0
   57.2204   52.4458   44.8311 N   0  0  0  0  0  0  0  0  0  0  0  0
   57.3832   51.2268   44.3328 C   0  0  0  0  0  0  0  0  0  0  0  0
   56.3226   50.4693   44.0731 N   0  0  0  0  0  0  0  0  0  0  0  0
   58.6281   50.7536   44.0938 O   0  0  0  0  0  0  0  0  0  0  0  0
   59.5008   51.3994   45.0229 C   0  0  0  0  0  0  0  0  0  0  0  0
   55.8228   54.1792   45.5836 N   0  0  0  0  0  0  0  0  0  0  0  0
   56.4428   55.2311   45.0130 C   0  0  0  0  0  0  0  0  0  0  0  0
   57.1551   55.0636   44.0423 O   0  0  0  0  0  0  0  0  0  0  0  0
   56.2732   56.4689   45.5187 N   0  0  0  0  0  0  0  0  0  0  0  0
   57.1316   57.7418   44.8980 S   0  0  0  0  0  0  0  0  0  0  0  0
   58.4166   57.2237   44.5828 O   0  0  0  0  0  0  0  0  0  0  0  0
   56.2575   58.3870   43.9822 O   0  0  0  0  0  0  0  0  0  0  0  0
   57.3876   58.8929   46.2073 C   0  0  0  0  0  0  0  0  0  0  0  0
   56.5746   60.0047   46.3188 C   0  0  0  0  0  0  0  0  0  0  0  0
   56.7753   60.9081   47.3460 C   0  0  0  0  0  0  0  0  0  0  0  0
   57.7896   60.7000   48.2616 C   0  0  0  0  0  0  0  0  0  0  0  0
   58.6039   59.5885   48.1509 C   0  0  0  0  0  0  0  0  0  0  0  0
   58.3993   58.6808   47.1272 C   0  0  0  0  0  0  0  0  0  0  0  0
   59.4211   57.2843   46.9878 Cl  0  0  0  0  0  0  0  0  0  0  0  0
   53.5796   50.2501   42.9741 H   0  0  0  0  0  0  0  0  0  0  0  0
   54.1711   49.0227   44.1194 H   0  0  0  0  0  0  0  0  0  0  0  0
   53.0967   50.3240   44.6856 H   0  0  0  0  0  0  0  0  0  0  0  0
   60.5209   51.0479   44.8679 H   0  0  0  0  0  0  0  0  0  0  0  0
   59.4608   52.4778   44.8697 H   0  0  0  0  0  0  0  0  0  0  0  0
   59.1864   51.1651   46.0400 H   0  0  0  0  0  0  0  0  0  0  0  0
   55.2544   54.3130   46.3582 H   0  0  0  0  0  0  0  0  0  0  0  0
   55.6481   56.6141   46.2461 H   0  0  0  0  0  0  0  0  0  0  0  0
   55.7823   60.1682   45.6032 H   0  0  0  0  0  0  0  0  0  0  0  0
   56.1397   61.7769   47.4328 H   0  0  0  0  0  0  0  0  0  0  0  0
   57.9462   61.4062   49.0637 H   0  0  0  0  0  0  0  0  0  0  0  0
   59.3968   59.4264   48.8659 H   0  0  0  0  0  0  0  0  0  0  0  0
  1  2  1  0  0  0  0
  2  3  2  0  0  0  0
  3  4  1  0  0  0  0
  4  5  2  0  0  0  0
  5  6  1  0  0  0  0
  6  7  2  0  0  0  0
  2  7  1  0  0  0  0
  6  8  1  0  0  0  0
  8  9  1  0  0  0  0
  4 10  1  0  0  0  0
 10 11  1  0  0  0  0
 11 12  2  0  0  0  0
 11 13  1  0  0  0  0
 13 14  1  0  0  0  0
 14 15  2  0  0  0  0
 14 16  2  0  0  0  0
 14 17  1  0  0  0  0
 17 18  2  0  0  0  0
 18 19  1  0  0  0  0
 19 20  2  0  0  0  0
 20 21  1  0  0  0  0
 21 22  2  0  0  0  0
 17 22  1  0  0  0  0
 22 23  1  0  0  0  0
  1 24  1  0  0  0  0
  1 25  1  0  0  0  0
  1 26  1  0  0  0  0
  9 27  1  0  0  0  0
  9 28  1  0  0  0  0
  9 29  1  0  0  0  0
 10 30  1  0  0  0  0
 13 31  1  0  0  0  0
 18 32  1  0  0  0  0
 19 33  1  0  0  0  0
 20 34  1  0  0  0  0
 21 35  1  0  0  0  0
M  END
> <Gold.Version>
2021.2.0

> <Gold.Id.Protein>
1YHZ|1YHZ_protein|mol2

> <Gold.PLP.Fitness>
37.4466

> <Gold.PLP.PLP>
-38.9150

> <Gold.PLP.part.hbond>
0.0000

> <Gold.PLP.part.metal>
0.0000

> <Gold.PLP.part.buried>
-5.6673

> <Gold.PLP.part.nonpolar>
-33.0054

> <Gold.PLP.part.repulsive>
0.1913

> <Gold.PLP.ligand.clash>
0.0000

> <Gold.PLP.ligand.torsion>
2.3981

> <Gold.PLP.Chemscore.Hbond>
0.0000

> <Gold.PLP.Chemscore.CHOScore>
0.0000

> <Gold.PLP.Chemscore.Metal>
0.0000

> <Gold.PLP.Chemscore.Internal.Correction>
3.3279

> <Gold.Protein.RotatedTorsions>
[ 6671 1667 1666 1664 ] final  -15.67 input   60.00 | X-H torsion
[ 6844 1845 1844 1841 ] final  149.51 input   60.00 | X-H torsion
[ 5051 2219 2218 2215 ] final   34.73 input   60.00 | X-H torsion
[ 5018 2233 2232 2231 ] final -164.99 input   59.99 | X-H torsion
[ 5515 4319 4318 4315 ] final   74.59 input   60.00 | X-H torsion
[ 5604 4440 4439 4437 ] final   58.50 input   60.00 | X-H torsion
[ 5608 4442 4441 4439 ] final -114.15 input   60.00 | X-H torsion
[ 5645 4474 4473 4472 ] final -136.57 input   60.00 | X-H torsion
[ 5630 4476 4475 4473 ] final  -34.39 input   60.00 | X-H torsion
[ 5635 4478 4477 4475 ] final   65.82 input   60.00 | X-H torsion

> <Gold.Protein.ActiveResidues>
 TYR305  THR331  LEU332  MET333  LEU349  GLY350  MET351  HIS352  GLY353  ASN358 
 VAL372  ARG373  PHE374  ASP375  ASP376  ARG377  VAL378  THR379  GLY380  LYS381 
 LEU382  PHE385  LYS403  ASN404  MET490  GLY508  GLY509  TRP574  ILE651  PRO652 
 SER653  GLY654  GLY655  FAD701 

> <Gold.Protein.RotatedAtoms>
   41.3097   53.6719   57.8769 H   0  0  0  0  0  0  0  0  0  0  0  0  # atno 5018 bound_to 2233
   42.8295   53.0105   57.8693 H   0  0  0  0  0  0  0  0  0  0  0  0  # atno 5019 bound_to 2233
   42.1657   53.5461   59.2905 H   0  0  0  0  0  0  0  0  0  0  0  0  # atno 5020 bound_to 2233
   50.6481   60.5885   56.1936 H   0  0  0  0  0  0  0  0  0  0  0  0  # atno 5051 bound_to 2219
   52.1906   55.6581   50.6584 H   0  0  0  0  0  0  0  0  0  0  0  0  # atno 5515 bound_to 4319
   55.1193   74.2364   54.9033 H   0  0  0  0  0  0  0  0  0  0  0  0  # atno 5604 bound_to 4440
   57.1762   76.6571   52.1782 H   0  0  0  0  0  0  0  0  0  0  0  0  # atno 5608 bound_to 4442
   61.0185   64.8090   50.8087 H   0  0  0  0  0  0  0  0  0  0  0  0  # atno 5630 bound_to 4476
   59.2066   63.4952   54.2921 H   0  0  0  0  0  0  0  0  0  0  0  0  # atno 5635 bound_to 4478
   58.5338   63.5801   50.0076 H   0  0  0  0  0  0  0  0  0  0  0  0  # atno 5645 bound_to 4474
   56.0591   66.2302   58.0795 H   0  0  0  0  0  0  0  0  0  0  0  0  # atno 6671 bound_to 1667
   61.2435   67.2758   56.2482 H   0  0  0  0  0  0  0  0  0  0  0  0  # atno 6844 bound_to 1845
   54.7227   67.1171   58.3540 LP  0  0  0  0  0  0  0  0  0  0  0  0  # atno 8952 bound_to 1667
   54.7072   65.5067   58.6244 LP  0  0  0  0  0  0  0  0  0  0  0  0  # atno 8953 bound_to 1667
   62.5880   66.7159   56.9741 LP  0  0  0  0  0  0  0  0  0  0  0  0  # atno 8956 bound_to 1845
   61.5463   67.6650   57.7990 LP  0  0  0  0  0  0  0  0  0  0  0  0  # atno 8957 bound_to 1845
   51.2576   62.0479   55.8108 LP  0  0  0  0  0  0  0  0  0  0  0  0  # atno 9001 bound_to 2219
   49.6869   61.9009   56.2325 LP  0  0  0  0  0  0  0  0  0  0  0  0  # atno 9002 bound_to 2219
   50.7429   54.9767   50.9551 LP  0  0  0  0  0  0  0  0  0  0  0  0  # atno 9031 bound_to 4319
   51.4182   54.8536   49.4734 LP  0  0  0  0  0  0  0  0  0  0  0  0  # atno 9032 bound_to 4319
   55.0202   72.9081   53.9685 LP  0  0  0  0  0  0  0  0  0  0  0  0  # atno 9039 bound_to 4440
   54.7382   74.3836   53.3282 LP  0  0  0  0  0  0  0  0  0  0  0  0  # atno 9040 bound_to 4440
   56.4522   77.1577   53.5470 LP  0  0  0  0  0  0  0  0  0  0  0  0  # atno 9041 bound_to 4442
   55.7244   76.0501   52.5930 LP  0  0  0  0  0  0  0  0  0  0  0  0  # atno 9042 bound_to 4442
   58.4688   62.0019   50.3988 LP  0  0  0  0  0  0  0  0  0  0  0  0  # atno 9052 bound_to 4474
   59.8353   62.6336   49.7663 LP  0  0  0  0  0  0  0  0  0  0  0  0  # atno 9053 bound_to 4474
   60.3578   66.2486   51.1816 LP  0  0  0  0  0  0  0  0  0  0  0  0  # atno 9054 bound_to 4476
   59.7417   65.3559   49.9609 LP  0  0  0  0  0  0  0  0  0  0  0  0  # atno 9055 bound_to 4476
   57.8735   64.3996   54.0621 LP  0  0  0  0  0  0  0  0  0  0  0  0  # atno 9056 bound_to 4478
   58.9763   64.8363   55.1846 LP  0  0  0  0  0  0  0  0  0  0  0  0  # atno 9057 bound_to 4478

$$$$
