C12H12ClN5O4S|Chlorsulfuron|mol|1|dock14
  -GOLD-   23022 1373D 1   1.00000     0.00000
 
 35 36  0  0  0  0  0  0  0  0  1 V2000
   59.4344   54.0636   49.1897 C   0  0  0  0  0  0  0  0  0  0  0  0
   59.1922   53.9348   47.7078 C   0  0  0  0  0  0  0  0  0  0  0  0
   58.8349   54.9944   47.0039 N   0  0  0  0  0  0  0  0  0  0  0  0
   58.6205   54.8836   45.6958 C   0  0  0  0  0  0  0  0  0  0  0  0
   58.7660   53.7068   45.0983 N   0  0  0  0  0  0  0  0  0  0  0  0
   59.1250   52.6450   45.8088 C   0  0  0  0  0  0  0  0  0  0  0  0
   59.3429   52.7633   47.1143 N   0  0  0  0  0  0  0  0  0  0  0  0
   59.2737   51.4440   45.2035 O   0  0  0  0  0  0  0  0  0  0  0  0
   58.0591   51.1845   44.4967 C   0  0  0  0  0  0  0  0  0  0  0  0
   58.2455   55.9945   44.9580 N   0  0  0  0  0  0  0  0  0  0  0  0
   57.3259   56.8496   45.4476 C   0  0  0  0  0  0  0  0  0  0  0  0
   56.8254   56.6459   46.5365 O   0  0  0  0  0  0  0  0  0  0  0  0
   56.9609   57.9304   44.7297 N   0  0  0  0  0  0  0  0  0  0  0  0
   55.7421   58.9116   45.2721 S   0  0  0  0  0  0  0  0  0  0  0  0
   55.4306   59.7756   44.1878 O   0  0  0  0  0  0  0  0  0  0  0  0
   54.8206   58.0541   45.9316 O   0  0  0  0  0  0  0  0  0  0  0  0
   56.4178   59.9452   46.5289 C   0  0  0  0  0  0  0  0  0  0  0  0
   57.7454   59.8162   46.8902 C   0  0  0  0  0  0  0  0  0  0  0  0
   58.2757   60.6270   47.8764 C   0  0  0  0  0  0  0  0  0  0  0  0
   57.4784   61.5670   48.5019 C   0  0  0  0  0  0  0  0  0  0  0  0
   56.1501   61.6968   48.1417 C   0  0  0  0  0  0  0  0  0  0  0  0
   55.6206   60.8902   47.1504 C   0  0  0  0  0  0  0  0  0  0  0  0
   53.9528   61.0530   46.6971 Cl  0  0  0  0  0  0  0  0  0  0  0  0
   58.5039   53.8809   49.7272 H   0  0  0  0  0  0  0  0  0  0  0  0
   60.1826   53.3342   49.5003 H   0  0  0  0  0  0  0  0  0  0  0  0
   59.7918   55.0687   49.4135 H   0  0  0  0  0  0  0  0  0  0  0  0
   58.1321   50.2220   43.9902 H   0  0  0  0  0  0  0  0  0  0  0  0
   57.2269   51.1627   45.2003 H   0  0  0  0  0  0  0  0  0  0  0  0
   57.8920   51.9707   43.7605 H   0  0  0  0  0  0  0  0  0  0  0  0
   58.6447   56.1570   44.0890 H   0  0  0  0  0  0  0  0  0  0  0  0
   57.4122   58.1335   43.8955 H   0  0  0  0  0  0  0  0  0  0  0  0
   58.3687   59.0814   46.4023 H   0  0  0  0  0  0  0  0  0  0  0  0
   59.3133   60.5258   48.1585 H   0  0  0  0  0  0  0  0  0  0  0  0
   57.8932   62.2000   49.2725 H   0  0  0  0  0  0  0  0  0  0  0  0
   55.5270   62.4307   48.6311 H   0  0  0  0  0  0  0  0  0  0  0  0
  1  2  1  0  0  0  0
  2  3  2  0  0  0  0
  3  4  1  0  0  0  0
  4  5  2  0  0  0  0
  5  6  1  0  0  0  0
  6  7  2  0  0  0  0
  2  7  1  0  0  0  0
  6  8  1  0  0  0  0
  8  9  1  0  0  0  0
  4 10  1  0  0  0  0
 10 11  1  0  0  0  0
 11 12  2  0  0  0  0
 11 13  1  0  0  0  0
 13 14  1  0  0  0  0
 14 15  2  0  0  0  0
 14 16  2  0  0  0  0
 14 17  1  0  0  0  0
 17 18  2  0  0  0  0
 18 19  1  0  0  0  0
 19 20  2  0  0  0  0
 20 21  1  0  0  0  0
 21 22  2  0  0  0  0
 17 22  1  0  0  0  0
 22 23  1  0  0  0  0
  1 24  1  0  0  0  0
  1 25  1  0  0  0  0
  1 26  1  0  0  0  0
  9 27  1  0  0  0  0
  9 28  1  0  0  0  0
  9 29  1  0  0  0  0
 10 30  1  0  0  0  0
 13 31  1  0  0  0  0
 18 32  1  0  0  0  0
 19 33  1  0  0  0  0
 20 34  1  0  0  0  0
 21 35  1  0  0  0  0
M  END
> <Gold.Version>
2021.2.0

> <Gold.Id.Protein>
1YHZ|1YHZ_protein|mol2

> <Gold.PLP.Fitness>
36.5722

> <Gold.PLP.PLP>
-37.5999

> <Gold.PLP.part.hbond>
-1.4202

> <Gold.PLP.part.metal>
0.0000

> <Gold.PLP.part.buried>
-2.0258

> <Gold.PLP.part.nonpolar>
-33.7983

> <Gold.PLP.part.repulsive>
0.1160

> <Gold.PLP.ligand.clash>
0.0000

> <Gold.PLP.ligand.torsion>
2.1585

> <Gold.PLP.Chemscore.Hbond>
0.0000

> <Gold.PLP.Chemscore.CHOScore>
0.0000

> <Gold.PLP.Chemscore.Metal>
0.0000

> <Gold.PLP.Chemscore.Internal.Correction>
3.2893

> <Gold.Protein.RotatedTorsions>
[ 6671 1667 1666 1664 ] final  128.64 input   60.00 | X-H torsion
[ 6844 1845 1844 1841 ] final -151.51 input   60.00 | X-H torsion
[ 5051 2219 2218 2215 ] final   -8.79 input   60.00 | X-H torsion
[ 5018 2233 2232 2231 ] final -148.80 input   59.99 | X-H torsion
[ 5515 4319 4318 4315 ] final -154.23 input   60.00 | X-H torsion
[ 5604 4440 4439 4437 ] final  -68.72 input   60.00 | X-H torsion
[ 5608 4442 4441 4439 ] final  -94.05 input   60.00 | X-H torsion
[ 5645 4474 4473 4472 ] final   -3.64 input   60.00 | X-H torsion
[ 5630 4476 4475 4473 ] final  173.75 input   60.00 | X-H torsion
[ 5635 4478 4477 4475 ] final   20.49 input   60.00 | X-H torsion

> <Gold.Protein.ActiveResidues>
 TYR305  THR331  LEU332  MET333  LEU349  GLY350  MET351  HIS352  GLY353  ASN358 
 VAL372  ARG373  PHE374  ASP375  ASP376  ARG377  VAL378  THR379  GLY380  LYS381 
 LEU382  PHE385  LYS403  ASN404  MET490  GLY508  GLY509  TRP574  ILE651  PRO652 
 SER653  GLY654  GLY655  FAD701 

> <Gold.Protein.RotatedAtoms>
   41.4480   53.5753   57.6666 H   0  0  0  0  0  0  0  0  0  0  0  0  # atno 5018 bound_to 2233
   42.9384   53.0061   58.1159 H   0  0  0  0  0  0  0  0  0  0  0  0  # atno 5019 bound_to 2233
   41.9184   53.6472   59.2542 H   0  0  0  0  0  0  0  0  0  0  0  0  # atno 5020 bound_to 2233
   51.2363   60.9000   55.9961 H   0  0  0  0  0  0  0  0  0  0  0  0  # atno 5051 bound_to 2219
   51.2587   54.7833   49.5299 H   0  0  0  0  0  0  0  0  0  0  0  0  # atno 5515 bound_to 4319
   54.9942   72.9327   53.8555 H   0  0  0  0  0  0  0  0  0  0  0  0  # atno 5604 bound_to 4440
   56.9887   76.4366   52.0264 H   0  0  0  0  0  0  0  0  0  0  0  0  # atno 5608 bound_to 4442
   59.9707   66.2922   50.8435 H   0  0  0  0  0  0  0  0  0  0  0  0  # atno 5630 bound_to 4476
   58.6028   63.5393   53.8996 H   0  0  0  0  0  0  0  0  0  0  0  0  # atno 5635 bound_to 4478
   59.7995   62.4344   49.8283 H   0  0  0  0  0  0  0  0  0  0  0  0  # atno 5645 bound_to 4474
   54.4347   65.7904   58.6663 H   0  0  0  0  0  0  0  0  0  0  0  0  # atno 6671 bound_to 1667
   60.9968   67.7141   57.0207 H   0  0  0  0  0  0  0  0  0  0  0  0  # atno 6844 bound_to 1845
   55.9814   65.8517   58.1641 LP  0  0  0  0  0  0  0  0  0  0  0  0  # atno 8952 bound_to 1667
   55.0845   67.2151   58.2233 LP  0  0  0  0  0  0  0  0  0  0  0  0  # atno 8953 bound_to 1667
   62.0510   66.7686   56.2188 LP  0  0  0  0  0  0  0  0  0  0  0  0  # atno 8956 bound_to 1845
   62.3318   67.1709   57.7763 LP  0  0  0  0  0  0  0  0  0  0  0  0  # atno 8957 bound_to 1845
   50.6755   62.4246   55.9004 LP  0  0  0  0  0  0  0  0  0  0  0  0  # atno 9001 bound_to 2219
   49.6767   61.2104   56.3418 LP  0  0  0  0  0  0  0  0  0  0  0  0  # atno 9002 bound_to 2219
   52.2563   55.6403   50.4882 LP  0  0  0  0  0  0  0  0  0  0  0  0  # atno 9031 bound_to 4319
   50.8434   55.0710   51.0767 LP  0  0  0  0  0  0  0  0  0  0  0  0  # atno 9032 bound_to 4319
   54.7471   74.4760   53.4024 LP  0  0  0  0  0  0  0  0  0  0  0  0  # atno 9039 bound_to 4440
   55.1373   74.1287   54.9496 LP  0  0  0  0  0  0  0  0  0  0  0  0  # atno 9040 bound_to 4440
   56.7412   77.2459   53.4163 LP  0  0  0  0  0  0  0  0  0  0  0  0  # atno 9041 bound_to 4442
   55.6243   76.1840   52.8766 LP  0  0  0  0  0  0  0  0  0  0  0  0  # atno 9042 bound_to 4442
   58.7172   63.6457   49.9247 LP  0  0  0  0  0  0  0  0  0  0  0  0  # atno 9052 bound_to 4474
   58.3122   62.1436   50.4209 LP  0  0  0  0  0  0  0  0  0  0  0  0  # atno 9053 bound_to 4474
   60.0402   64.9333   49.9510 LP  0  0  0  0  0  0  0  0  0  0  0  0  # atno 9054 bound_to 4476
   61.1144   65.1776   51.1564 LP  0  0  0  0  0  0  0  0  0  0  0  0  # atno 9055 bound_to 4476
   58.0193   64.9060   54.5625 LP  0  0  0  0  0  0  0  0  0  0  0  0  # atno 9056 bound_to 4478
   59.4386   64.2855   55.0796 LP  0  0  0  0  0  0  0  0  0  0  0  0  # atno 9057 bound_to 4478

$$$$
