C12H12ClN5O4S|Chlorsulfuron|mol|1|dock16
  -GOLD-   23022 1373D 1   1.00000     0.00000
 
 35 36  0  0  0  0  0  0  0  0  1 V2000
   59.2515   51.9081   44.8994 C   0  0  0  0  0  0  0  0  0  0  0  0
   58.7410   52.9182   45.8946 C   0  0  0  0  0  0  0  0  0  0  0  0
   57.8455   53.8157   45.5225 N   0  0  0  0  0  0  0  0  0  0  0  0
   57.3932   54.7083   46.3988 C   0  0  0  0  0  0  0  0  0  0  0  0
   57.8428   54.6963   47.6481 N   0  0  0  0  0  0  0  0  0  0  0  0
   58.7420   53.7933   48.0180 C   0  0  0  0  0  0  0  0  0  0  0  0
   59.1860   52.9008   47.1393 N   0  0  0  0  0  0  0  0  0  0  0  0
   59.2029   53.7783   49.2901 O   0  0  0  0  0  0  0  0  0  0  0  0
   59.7977   55.0555   49.5290 C   0  0  0  0  0  0  0  0  0  0  0  0
   56.4547   55.6495   46.0083 N   0  0  0  0  0  0  0  0  0  0  0  0
   56.8567   56.8365   45.5124 C   0  0  0  0  0  0  0  0  0  0  0  0
   58.0429   57.0812   45.4078 O   0  0  0  0  0  0  0  0  0  0  0  0
   55.9437   57.7523   45.1325 N   0  0  0  0  0  0  0  0  0  0  0  0
   56.4338   59.2561   44.6421 S   0  0  0  0  0  0  0  0  0  0  0  0
   57.6233   59.0493   43.8928 O   0  0  0  0  0  0  0  0  0  0  0  0
   55.2640   59.9070   44.1653 O   0  0  0  0  0  0  0  0  0  0  0  0
   56.9236   60.1461   46.0818 C   0  0  0  0  0  0  0  0  0  0  0  0
   55.9939   60.8878   46.7854 C   0  0  0  0  0  0  0  0  0  0  0  0
   56.3780   61.5862   47.9151 C   0  0  0  0  0  0  0  0  0  0  0  0
   57.6922   61.5435   48.3410 C   0  0  0  0  0  0  0  0  0  0  0  0
   58.6233   60.8023   47.6378 C   0  0  0  0  0  0  0  0  0  0  0  0
   58.2381   60.0980   46.5111 C   0  0  0  0  0  0  0  0  0  0  0  0
   59.4067   59.1665   45.6277 Cl  0  0  0  0  0  0  0  0  0  0  0  0
   60.1302   52.3083   44.3938 H   0  0  0  0  0  0  0  0  0  0  0  0
   59.5192   50.9885   45.4199 H   0  0  0  0  0  0  0  0  0  0  0  0
   58.4744   51.6969   44.1649 H   0  0  0  0  0  0  0  0  0  0  0  0
   60.1853   55.0910   50.5472 H   0  0  0  0  0  0  0  0  0  0  0  0
   60.6136   55.2139   48.8238 H   0  0  0  0  0  0  0  0  0  0  0  0
   59.0479   55.8357   49.3983 H   0  0  0  0  0  0  0  0  0  0  0  0
   55.5082   55.4543   46.0918 H   0  0  0  0  0  0  0  0  0  0  0  0
   54.9995   57.5304   45.1463 H   0  0  0  0  0  0  0  0  0  0  0  0
   54.9669   60.9221   46.4527 H   0  0  0  0  0  0  0  0  0  0  0  0
   55.6511   62.1658   48.4647 H   0  0  0  0  0  0  0  0  0  0  0  0
   57.9918   62.0896   49.2234 H   0  0  0  0  0  0  0  0  0  0  0  0
   59.6503   60.7696   47.9702 H   0  0  0  0  0  0  0  0  0  0  0  0
  1  2  1  0  0  0  0
  2  3  2  0  0  0  0
  3  4  1  0  0  0  0
  4  5  2  0  0  0  0
  5  6  1  0  0  0  0
  6  7  2  0  0  0  0
  2  7  1  0  0  0  0
  6  8  1  0  0  0  0
  8  9  1  0  0  0  0
  4 10  1  0  0  0  0
 10 11  1  0  0  0  0
 11 12  2  0  0  0  0
 11 13  1  0  0  0  0
 13 14  1  0  0  0  0
 14 15  2  0  0  0  0
 14 16  2  0  0  0  0
 14 17  1  0  0  0  0
 17 18  2  0  0  0  0
 18 19  1  0  0  0  0
 19 20  2  0  0  0  0
 20 21  1  0  0  0  0
 21 22  2  0  0  0  0
 17 22  1  0  0  0  0
 22 23  1  0  0  0  0
  1 24  1  0  0  0  0
  1 25  1  0  0  0  0
  1 26  1  0  0  0  0
  9 27  1  0  0  0  0
  9 28  1  0  0  0  0
  9 29  1  0  0  0  0
 10 30  1  0  0  0  0
 13 31  1  0  0  0  0
 18 32  1  0  0  0  0
 19 33  1  0  0  0  0
 20 34  1  0  0  0  0
 21 35  1  0  0  0  0
M  END
> <Gold.Version>
2021.2.0

> <Gold.Id.Protein>
1YHZ|1YHZ_protein|mol2

> <Gold.PLP.Fitness>
40.0185

> <Gold.PLP.PLP>
-41.3059

> <Gold.PLP.part.hbond>
-1.6945

> <Gold.PLP.part.metal>
0.0000

> <Gold.PLP.part.buried>
-2.6637

> <Gold.PLP.part.nonpolar>
-36.1978

> <Gold.PLP.part.repulsive>
0.2412

> <Gold.PLP.ligand.clash>
0.3635

> <Gold.PLP.ligand.torsion>
2.2193

> <Gold.PLP.Chemscore.Hbond>
0.0751

> <Gold.PLP.Chemscore.CHOScore>
0.0000

> <Gold.PLP.Chemscore.Metal>
0.0000

> <Gold.Chemscore.Hbonds>
donor molecule, donor type, donor heavy atom, donor atom, acceptor molecule, acceptor atom, score
      P1  H  2206  5009       L1     5  0.08

> <Gold.PLP.Chemscore.Internal.Correction>
3.2893

> <Gold.Protein.RotatedTorsions>
[ 6671 1667 1666 1664 ] final -155.61 input   60.00 | X-H torsion
[ 6844 1845 1844 1841 ] final  -93.02 input   60.00 | X-H torsion
[ 5051 2219 2218 2215 ] final  -18.10 input   60.00 | X-H torsion
[ 5018 2233 2232 2231 ] final   27.62 input   59.99 | X-H torsion
[ 5515 4319 4318 4315 ] final -175.47 input   60.00 | X-H torsion
[ 5604 4440 4439 4437 ] final  -73.68 input   60.00 | X-H torsion
[ 5608 4442 4441 4439 ] final  -30.47 input   60.00 | X-H torsion
[ 5645 4474 4473 4472 ] final    9.24 input   60.00 | X-H torsion
[ 5630 4476 4475 4473 ] final -149.18 input   60.00 | X-H torsion
[ 5635 4478 4477 4475 ] final  128.05 input   60.00 | X-H torsion

> <Gold.Protein.ActiveResidues>
 TYR305  THR331  LEU332  MET333  LEU349  GLY350  MET351  HIS352  GLY353  ASN358 
 VAL372  ARG373  PHE374  ASP375  ASP376  ARG377  VAL378  THR379  GLY380  LYS381 
 LEU382  PHE385  LYS403  ASN404  MET490  GLY508  GLY509  TRP574  ILE651  PRO652 
 SER653  GLY654  GLY655  FAD701 

> <Gold.Protein.RotatedAtoms>
   42.7908   53.2209   58.9820 H   0  0  0  0  0  0  0  0  0  0  0  0  # atno 5018 bound_to 2233
   41.2833   53.8146   58.6320 H   0  0  0  0  0  0  0  0  0  0  0  0  # atno 5019 bound_to 2233
   42.2307   53.1930   57.4223 H   0  0  0  0  0  0  0  0  0  0  0  0  # atno 5020 bound_to 2233
   51.3196   61.0207   55.9563 H   0  0  0  0  0  0  0  0  0  0  0  0  # atno 5051 bound_to 2219
   51.5654   54.9274   49.4643 H   0  0  0  0  0  0  0  0  0  0  0  0  # atno 5515 bound_to 4319
   54.9747   72.9533   53.7796 H   0  0  0  0  0  0  0  0  0  0  0  0  # atno 5604 bound_to 4440
   56.1182   75.9934   52.1632 H   0  0  0  0  0  0  0  0  0  0  0  0  # atno 5608 bound_to 4442
   60.4233   66.2102   51.2214 H   0  0  0  0  0  0  0  0  0  0  0  0  # atno 5630 bound_to 4476
   59.4887   64.1159   54.9786 H   0  0  0  0  0  0  0  0  0  0  0  0  # atno 5635 bound_to 4478
   59.7263   62.2502   49.8975 H   0  0  0  0  0  0  0  0  0  0  0  0  # atno 5645 bound_to 4474
   54.4874   66.9207   58.4633 H   0  0  0  0  0  0  0  0  0  0  0  0  # atno 6671 bound_to 1667
   61.5130   67.6738   57.7750 H   0  0  0  0  0  0  0  0  0  0  0  0  # atno 6844 bound_to 1845
   54.9989   65.3786   58.5532 LP  0  0  0  0  0  0  0  0  0  0  0  0  # atno 8952 bound_to 1667
   56.0139   66.5499   58.0387 LP  0  0  0  0  0  0  0  0  0  0  0  0  # atno 8953 bound_to 1667
   61.2679   67.2540   56.2220 LP  0  0  0  0  0  0  0  0  0  0  0  0  # atno 8956 bound_to 1845
   62.5950   66.7262   57.0137 LP  0  0  0  0  0  0  0  0  0  0  0  0  # atno 8957 bound_to 1845
   50.5275   62.4420   55.9353 LP  0  0  0  0  0  0  0  0  0  0  0  0  # atno 9001 bound_to 2219
   49.7408   61.0715   56.3470 LP  0  0  0  0  0  0  0  0  0  0  0  0  # atno 9002 bound_to 2219
   52.1152   55.6683   50.8047 LP  0  0  0  0  0  0  0  0  0  0  0  0  # atno 9031 bound_to 4319
   50.6755   54.8979   50.8263 LP  0  0  0  0  0  0  0  0  0  0  0  0  # atno 9032 bound_to 4319
   54.7551   74.5336   53.4595 LP  0  0  0  0  0  0  0  0  0  0  0  0  # atno 9039 bound_to 4440
   55.1489   74.0503   54.9688 LP  0  0  0  0  0  0  0  0  0  0  0  0  # atno 9040 bound_to 4440
   57.2876   77.0307   52.6153 LP  0  0  0  0  0  0  0  0  0  0  0  0  # atno 9041 bound_to 4442
   55.9544   76.8454   53.5399 LP  0  0  0  0  0  0  0  0  0  0  0  0  # atno 9042 bound_to 4442
   58.9150   63.6600   49.8513 LP  0  0  0  0  0  0  0  0  0  0  0  0  # atno 9052 bound_to 4474
   58.1882   62.3148   50.4247 LP  0  0  0  0  0  0  0  0  0  0  0  0  # atno 9053 bound_to 4474
   59.7094   65.4321   49.9833 LP  0  0  0  0  0  0  0  0  0  0  0  0  # atno 9054 bound_to 4476
   60.9895   64.7614   50.7436 LP  0  0  0  0  0  0  0  0  0  0  0  0  # atno 9055 bound_to 4476
   58.4265   63.6268   53.8470 LP  0  0  0  0  0  0  0  0  0  0  0  0  # atno 9056 bound_to 4478
   58.1391   64.9840   54.7084 LP  0  0  0  0  0  0  0  0  0  0  0  0  # atno 9057 bound_to 4478

$$$$
