C12H12ClN5O4S|Chlorsulfuron|mol|1|dock12
  -GOLD-   23022 1373D 1   1.00000     0.00000
 
 35 36  0  0  0  0  0  0  0  0  1 V2000
   59.3606   51.4870   45.2030 C   0  0  0  0  0  0  0  0  0  0  0  0
   59.0947   52.8741   45.7288 C   0  0  0  0  0  0  0  0  0  0  0  0
   59.0786   53.9018   44.8985 N   0  0  0  0  0  0  0  0  0  0  0  0
   58.8441   55.1272   45.3598 C   0  0  0  0  0  0  0  0  0  0  0  0
   58.6263   55.3163   46.6559 N   0  0  0  0  0  0  0  0  0  0  0  0
   58.6433   54.2816   47.4866 C   0  0  0  0  0  0  0  0  0  0  0  0
   58.8728   53.0592   47.0187 N   0  0  0  0  0  0  0  0  0  0  0  0
   58.4224   54.4705   48.8081 O   0  0  0  0  0  0  0  0  0  0  0  0
   59.6395   54.1431   49.4813 C   0  0  0  0  0  0  0  0  0  0  0  0
   58.8277   56.2046   44.4892 N   0  0  0  0  0  0  0  0  0  0  0  0
   58.0696   57.2838   44.7668 C   0  0  0  0  0  0  0  0  0  0  0  0
   57.4001   57.3117   45.7810 O   0  0  0  0  0  0  0  0  0  0  0  0
   58.0535   58.3321   43.9197 N   0  0  0  0  0  0  0  0  0  0  0  0
   57.0281   59.6031   44.1946 S   0  0  0  0  0  0  0  0  0  0  0  0
   57.4507   60.6370   43.3162 O   0  0  0  0  0  0  0  0  0  0  0  0
   55.7227   59.0435   44.2385 O   0  0  0  0  0  0  0  0  0  0  0  0
   57.3494   60.1966   45.8222 C   0  0  0  0  0  0  0  0  0  0  0  0
   56.3059   60.6271   46.6194 C   0  0  0  0  0  0  0  0  0  0  0  0
   56.5578   61.0930   47.8965 C   0  0  0  0  0  0  0  0  0  0  0  0
   57.8535   61.1288   48.3766 C   0  0  0  0  0  0  0  0  0  0  0  0
   58.8982   60.6989   47.5800 C   0  0  0  0  0  0  0  0  0  0  0  0
   58.6460   60.2266   46.3044 C   0  0  0  0  0  0  0  0  0  0  0  0
   59.9575   59.6860   45.3036 Cl  0  0  0  0  0  0  0  0  0  0  0  0
   60.4322   51.2890   45.2256 H   0  0  0  0  0  0  0  0  0  0  0  0
   58.8431   50.7571   45.8256 H   0  0  0  0  0  0  0  0  0  0  0  0
   58.9988   51.4115   44.1776 H   0  0  0  0  0  0  0  0  0  0  0  0
   59.5094   54.2809   50.5547 H   0  0  0  0  0  0  0  0  0  0  0  0
   59.8997   53.1045   49.2772 H   0  0  0  0  0  0  0  0  0  0  0  0
   60.4380   54.7943   49.1256 H   0  0  0  0  0  0  0  0  0  0  0  0
   59.3619   56.1824   43.6797 H   0  0  0  0  0  0  0  0  0  0  0  0
   58.6426   58.3420   43.1492 H   0  0  0  0  0  0  0  0  0  0  0  0
   55.2934   60.6000   46.2445 H   0  0  0  0  0  0  0  0  0  0  0  0
   55.7420   61.4293   48.5191 H   0  0  0  0  0  0  0  0  0  0  0  0
   58.0497   61.4931   49.3742 H   0  0  0  0  0  0  0  0  0  0  0  0
   59.9106   60.7277   47.9549 H   0  0  0  0  0  0  0  0  0  0  0  0
  1  2  1  0  0  0  0
  2  3  2  0  0  0  0
  3  4  1  0  0  0  0
  4  5  2  0  0  0  0
  5  6  1  0  0  0  0
  6  7  2  0  0  0  0
  2  7  1  0  0  0  0
  6  8  1  0  0  0  0
  8  9  1  0  0  0  0
  4 10  1  0  0  0  0
 10 11  1  0  0  0  0
 11 12  2  0  0  0  0
 11 13  1  0  0  0  0
 13 14  1  0  0  0  0
 14 15  2  0  0  0  0
 14 16  2  0  0  0  0
 14 17  1  0  0  0  0
 17 18  2  0  0  0  0
 18 19  1  0  0  0  0
 19 20  2  0  0  0  0
 20 21  1  0  0  0  0
 21 22  2  0  0  0  0
 17 22  1  0  0  0  0
 22 23  1  0  0  0  0
  1 24  1  0  0  0  0
  1 25  1  0  0  0  0
  1 26  1  0  0  0  0
  9 27  1  0  0  0  0
  9 28  1  0  0  0  0
  9 29  1  0  0  0  0
 10 30  1  0  0  0  0
 13 31  1  0  0  0  0
 18 32  1  0  0  0  0
 19 33  1  0  0  0  0
 20 34  1  0  0  0  0
 21 35  1  0  0  0  0
M  END
> <Gold.Version>
2021.2.0

> <Gold.Id.Protein>
1YHZ|1YHZ_protein|mol2

> <Gold.PLP.Fitness>
42.7195

> <Gold.PLP.PLP>
-40.6618

> <Gold.PLP.part.hbond>
-1.1574

> <Gold.PLP.part.metal>
0.0000

> <Gold.PLP.part.buried>
-3.2931

> <Gold.PLP.part.nonpolar>
-36.3139

> <Gold.PLP.part.repulsive>
0.1410

> <Gold.PLP.ligand.clash>
0.0000

> <Gold.PLP.ligand.torsion>
1.9053

> <Gold.PLP.Chemscore.Hbond>
0.8590

> <Gold.PLP.Chemscore.CHOScore>
0.0000

> <Gold.PLP.Chemscore.Metal>
0.0000

> <Gold.Chemscore.Hbonds>
donor molecule, donor type, donor heavy atom, donor atom, acceptor molecule, acceptor atom, score
      P1  H  2206  5009       L1     8  0.86

> <Gold.PLP.Chemscore.Internal.Correction>
3.2911

> <Gold.Protein.RotatedTorsions>
[ 6671 1667 1666 1664 ] final   38.43 input   60.00 | X-H torsion
[ 6844 1845 1844 1841 ] final  -86.03 input   60.00 | X-H torsion
[ 5051 2219 2218 2215 ] final   38.24 input   60.00 | X-H torsion
[ 5018 2233 2232 2231 ] final  169.23 input   59.99 | X-H torsion
[ 5515 4319 4318 4315 ] final -112.89 input   60.00 | X-H torsion
[ 5604 4440 4439 4437 ] final -173.67 input   60.00 | X-H torsion
[ 5608 4442 4441 4439 ] final  -12.86 input   60.00 | X-H torsion
[ 5645 4474 4473 4472 ] final -173.30 input   60.00 | X-H torsion
[ 5630 4476 4475 4473 ] final  103.71 input   60.00 | X-H torsion
[ 5635 4478 4477 4475 ] final -145.14 input   60.00 | X-H torsion

> <Gold.Protein.ActiveResidues>
 TYR305  THR331  LEU332  MET333  LEU349  GLY350  MET351  HIS352  GLY353  ASN358 
 VAL372  ARG373  PHE374  ASP375  ASP376  ARG377  VAL378  THR379  GLY380  LYS381 
 LEU382  PHE385  LYS403  ASN404  MET490  GLY508  GLY509  TRP574  ILE651  PRO652 
 SER653  GLY654  GLY655  FAD701 

> <Gold.Protein.RotatedAtoms>
   41.2219   53.7802   58.2803 H   0  0  0  0  0  0  0  0  0  0  0  0  # atno 5018 bound_to 2233
   42.5422   53.0818   57.5618 H   0  0  0  0  0  0  0  0  0  0  0  0  # atno 5019 bound_to 2233
   42.5409   53.3665   59.1946 H   0  0  0  0  0  0  0  0  0  0  0  0  # atno 5020 bound_to 2233
   50.5928   60.5850   56.2082 H   0  0  0  0  0  0  0  0  0  0  0  0  # atno 5051 bound_to 2219
   50.7721   54.6623   49.9604 H   0  0  0  0  0  0  0  0  0  0  0  0  # atno 5515 bound_to 4319
   54.7364   74.2711   53.2662 H   0  0  0  0  0  0  0  0  0  0  0  0  # atno 5604 bound_to 4440
   55.9025   75.9907   52.3522 H   0  0  0  0  0  0  0  0  0  0  0  0  # atno 5608 bound_to 4442
   59.6570   65.6182   50.0676 H   0  0  0  0  0  0  0  0  0  0  0  0  # atno 5630 bound_to 4476
   58.5675   65.0126   55.0304 H   0  0  0  0  0  0  0  0  0  0  0  0  # atno 5635 bound_to 4478
   58.1470   63.1968   50.2346 H   0  0  0  0  0  0  0  0  0  0  0  0  # atno 5645 bound_to 4474
   55.6824   65.5050   58.3183 H   0  0  0  0  0  0  0  0  0  0  0  0  # atno 6671 bound_to 1667
   61.6077   67.6335   57.8245 H   0  0  0  0  0  0  0  0  0  0  0  0  # atno 6844 bound_to 1845
   55.5404   67.1108   58.0962 LP  0  0  0  0  0  0  0  0  0  0  0  0  # atno 8952 bound_to 1667
   54.2689   66.2435   58.6417 LP  0  0  0  0  0  0  0  0  0  0  0  0  # atno 8953 bound_to 1667
   61.1957   67.3206   56.2816 LP  0  0  0  0  0  0  0  0  0  0  0  0  # atno 8956 bound_to 1845
   62.5719   66.7000   56.9042 LP  0  0  0  0  0  0  0  0  0  0  0  0  # atno 8957 bound_to 1845
   51.2902   62.0003   55.8099 LP  0  0  0  0  0  0  0  0  0  0  0  0  # atno 9001 bound_to 2219
   49.7100   61.9520   56.2187 LP  0  0  0  0  0  0  0  0  0  0  0  0  # atno 9002 bound_to 2219
   52.2133   55.4118   49.8646 LP  0  0  0  0  0  0  0  0  0  0  0  0  # atno 9031 bound_to 4319
   51.3764   55.4214   51.2668 LP  0  0  0  0  0  0  0  0  0  0  0  0  # atno 9032 bound_to 4319
   55.0945   74.3512   54.8516 LP  0  0  0  0  0  0  0  0  0  0  0  0  # atno 9039 bound_to 4440
   55.0495   72.9054   54.0938 LP  0  0  0  0  0  0  0  0  0  0  0  0  # atno 9040 bound_to 4440
   57.2765   76.8622   52.3810 LP  0  0  0  0  0  0  0  0  0  0  0  0  # atno 9041 bound_to 4442
   56.1828   77.0167   53.5838 LP  0  0  0  0  0  0  0  0  0  0  0  0  # atno 9042 bound_to 4442
   59.0140   61.8198   50.2484 LP  0  0  0  0  0  0  0  0  0  0  0  0  # atno 9052 bound_to 4474
   59.6797   63.2017   49.6880 LP  0  0  0  0  0  0  0  0  0  0  0  0  # atno 9053 bound_to 4474
   60.8819   64.6782   50.5815 LP  0  0  0  0  0  0  0  0  0  0  0  0  # atno 9054 bound_to 4476
   60.5887   66.1114   51.3073 LP  0  0  0  0  0  0  0  0  0  0  0  0  # atno 9055 bound_to 4476
   59.4525   63.7057   54.6345 LP  0  0  0  0  0  0  0  0  0  0  0  0  # atno 9056 bound_to 4478
   58.0410   64.0021   53.8687 LP  0  0  0  0  0  0  0  0  0  0  0  0  # atno 9057 bound_to 4478

$$$$
