C12H12ClN5O4S|Chlorsulfuron|mol|1|dock8
  -GOLD-   23022 1373D 1   1.00000     0.00000
 
 35 36  0  0  0  0  0  0  0  0  1 V2000
   50.5324   66.6041   45.4649 C   0  0  0  0  0  0  0  0  0  0  0  0
   51.5511   66.4556   46.5656 C   0  0  0  0  0  0  0  0  0  0  0  0
   52.6505   65.7535   46.3559 N   0  0  0  0  0  0  0  0  0  0  0  0
   53.5512   65.6208   47.3256 C   0  0  0  0  0  0  0  0  0  0  0  0
   53.3440   66.1950   48.5048 N   0  0  0  0  0  0  0  0  0  0  0  0
   52.2386   66.8994   48.7115 C   0  0  0  0  0  0  0  0  0  0  0  0
   51.3451   67.0327   47.7370 N   0  0  0  0  0  0  0  0  0  0  0  0
   52.0237   67.4855   49.9120 O   0  0  0  0  0  0  0  0  0  0  0  0
   51.9996   66.4386   50.8844 C   0  0  0  0  0  0  0  0  0  0  0  0
   54.7037   64.8841   47.1058 N   0  0  0  0  0  0  0  0  0  0  0  0
   54.6277   63.6729   46.5196 C   0  0  0  0  0  0  0  0  0  0  0  0
   53.5478   63.2267   46.1840 O   0  0  0  0  0  0  0  0  0  0  0  0
   55.7489   62.9561   46.3057 N   0  0  0  0  0  0  0  0  0  0  0  0
   55.6455   61.4175   45.7020 S   0  0  0  0  0  0  0  0  0  0  0  0
   54.4276   60.8862   46.2055 O   0  0  0  0  0  0  0  0  0  0  0  0
   55.9933   61.5178   44.3279 O   0  0  0  0  0  0  0  0  0  0  0  0
   56.9276   60.4700   46.4524 C   0  0  0  0  0  0  0  0  0  0  0  0
   57.5363   60.9231   47.6073 C   0  0  0  0  0  0  0  0  0  0  0  0
   58.5424   60.1798   48.1962 C   0  0  0  0  0  0  0  0  0  0  0  0
   58.9403   58.9834   47.6299 C   0  0  0  0  0  0  0  0  0  0  0  0
   58.3325   58.5292   46.4744 C   0  0  0  0  0  0  0  0  0  0  0  0
   57.3213   59.2694   45.8884 C   0  0  0  0  0  0  0  0  0  0  0  0
   56.5571   58.6995   44.4375 Cl  0  0  0  0  0  0  0  0  0  0  0  0
   49.8081   65.7921   45.5281 H   0  0  0  0  0  0  0  0  0  0  0  0
   50.0180   67.5590   45.5723 H   0  0  0  0  0  0  0  0  0  0  0  0
   51.0345   66.5685   44.4980 H   0  0  0  0  0  0  0  0  0  0  0  0
   51.8283   66.8648   51.8729 H   0  0  0  0  0  0  0  0  0  0  0  0
   51.1978   65.7398   50.6460 H   0  0  0  0  0  0  0  0  0  0  0  0
   52.9543   65.9128   50.8759 H   0  0  0  0  0  0  0  0  0  0  0  0
   55.5654   65.2401   47.3736 H   0  0  0  0  0  0  0  0  0  0  0  0
   56.6163   63.3416   46.5053 H   0  0  0  0  0  0  0  0  0  0  0  0
   57.2263   61.8583   48.0499 H   0  0  0  0  0  0  0  0  0  0  0  0
   59.0178   60.5343   49.0988 H   0  0  0  0  0  0  0  0  0  0  0  0
   59.7265   58.4033   48.0902 H   0  0  0  0  0  0  0  0  0  0  0  0
   58.6440   57.5948   46.0316 H   0  0  0  0  0  0  0  0  0  0  0  0
  1  2  1  0  0  0  0
  2  3  2  0  0  0  0
  3  4  1  0  0  0  0
  4  5  2  0  0  0  0
  5  6  1  0  0  0  0
  6  7  2  0  0  0  0
  2  7  1  0  0  0  0
  6  8  1  0  0  0  0
  8  9  1  0  0  0  0
  4 10  1  0  0  0  0
 10 11  1  0  0  0  0
 11 12  2  0  0  0  0
 11 13  1  0  0  0  0
 13 14  1  0  0  0  0
 14 15  2  0  0  0  0
 14 16  2  0  0  0  0
 14 17  1  0  0  0  0
 17 18  2  0  0  0  0
 18 19  1  0  0  0  0
 19 20  2  0  0  0  0
 20 21  1  0  0  0  0
 21 22  2  0  0  0  0
 17 22  1  0  0  0  0
 22 23  1  0  0  0  0
  1 24  1  0  0  0  0
  1 25  1  0  0  0  0
  1 26  1  0  0  0  0
  9 27  1  0  0  0  0
  9 28  1  0  0  0  0
  9 29  1  0  0  0  0
 10 30  1  0  0  0  0
 13 31  1  0  0  0  0
 18 32  1  0  0  0  0
 19 33  1  0  0  0  0
 20 34  1  0  0  0  0
 21 35  1  0  0  0  0
M  END
> <Gold.Version>
2021.2.0

> <Gold.Id.Protein>
1YHZ|1YHZ_protein|mol2

> <Gold.PLP.Fitness>
35.1772

> <Gold.PLP.PLP>
-27.7595

> <Gold.PLP.part.hbond>
-4.0000

> <Gold.PLP.part.metal>
0.0000

> <Gold.PLP.part.buried>
-3.9104

> <Gold.PLP.part.nonpolar>
-20.1023

> <Gold.PLP.part.repulsive>
0.4248

> <Gold.PLP.ligand.clash>
0.0000

> <Gold.PLP.ligand.torsion>
2.2327

> <Gold.PLP.Chemscore.Hbond>
2.8640

> <Gold.PLP.Chemscore.CHOScore>
0.0000

> <Gold.PLP.Chemscore.Metal>
0.0000

> <Gold.Chemscore.Hbonds>
donor molecule, donor type, donor heavy atom, donor atom, acceptor molecule, acceptor atom, score
      L1  H    13    31       P1  3227  0.98
      P1  H  2167  4959       L1     5  0.98
      P1  H  2394  7072       L1     8  0.91

> <Gold.PLP.Chemscore.Internal.Correction>
3.2911

> <Gold.Protein.RotatedTorsions>
[ 6671 1667 1666 1664 ] final  134.40 input   60.00 | X-H torsion
[ 6844 1845 1844 1841 ] final   94.77 input   60.00 | X-H torsion
[ 5051 2219 2218 2215 ] final -126.44 input   60.00 | X-H torsion
[ 5018 2233 2232 2231 ] final  -70.51 input   59.99 | X-H torsion
[ 5515 4319 4318 4315 ] final -171.32 input   60.00 | X-H torsion
[ 5604 4440 4439 4437 ] final  -97.69 input   60.00 | X-H torsion
[ 5608 4442 4441 4439 ] final  158.28 input   60.00 | X-H torsion
[ 5645 4474 4473 4472 ] final  170.43 input   60.00 | X-H torsion
[ 5630 4476 4475 4473 ] final   19.13 input   60.00 | X-H torsion
[ 5635 4478 4477 4475 ] final   98.33 input   60.00 | X-H torsion

> <Gold.Protein.ActiveResidues>
 TYR305  THR331  LEU332  MET333  LEU349  GLY350  MET351  HIS352  GLY353  ASN358 
 VAL372  ARG373  PHE374  ASP375  ASP376  ARG377  VAL378  THR379  GLY380  LYS381 
 LEU382  PHE385  LYS403  ASN404  MET490  GLY508  GLY509  TRP574  ILE651  PRO652 
 SER653  GLY654  GLY655  FAD701 

> <Gold.Protein.RotatedAtoms>
   42.5454   53.0809   57.5641 H   0  0  0  0  0  0  0  0  0  0  0  0  # atno 5018 bound_to 2233
   42.5374   53.3682   59.1965 H   0  0  0  0  0  0  0  0  0  0  0  0  # atno 5019 bound_to 2233
   41.2218   53.7796   58.2760 H   0  0  0  0  0  0  0  0  0  0  0  0  # atno 5020 bound_to 2233
   50.7118   62.4103   55.8959 H   0  0  0  0  0  0  0  0  0  0  0  0  # atno 5051 bound_to 2219
   51.5053   54.8960   49.4675 H   0  0  0  0  0  0  0  0  0  0  0  0  # atno 5515 bound_to 4319
   54.8817   73.1431   53.4525 H   0  0  0  0  0  0  0  0  0  0  0  0  # atno 5604 bound_to 4440
   56.9010   77.2565   53.2934 H   0  0  0  0  0  0  0  0  0  0  0  0  # atno 5608 bound_to 4442
   60.4728   64.6650   50.1823 H   0  0  0  0  0  0  0  0  0  0  0  0  # atno 5630 bound_to 4476
   59.4650   63.7469   54.6723 H   0  0  0  0  0  0  0  0  0  0  0  0  # atno 5635 bound_to 4478
   58.0720   62.9566   50.3176 H   0  0  0  0  0  0  0  0  0  0  0  0  # atno 5645 bound_to 4474
   54.3868   65.8715   58.6682 H   0  0  0  0  0  0  0  0  0  0  0  0  # atno 6671 bound_to 1667
   61.9625   66.8069   56.1822 H   0  0  0  0  0  0  0  0  0  0  0  0  # atno 6844 bound_to 1845
   55.9392   65.7710   58.1908 LP  0  0  0  0  0  0  0  0  0  0  0  0  # atno 8952 bound_to 1667
   55.1750   67.2141   58.1948 LP  0  0  0  0  0  0  0  0  0  0  0  0  # atno 8953 bound_to 1667
   62.3954   67.1112   57.7211 LP  0  0  0  0  0  0  0  0  0  0  0  0  # atno 8956 bound_to 1845
   61.0149   67.7418   57.1184 LP  0  0  0  0  0  0  0  0  0  0  0  0  # atno 8957 bound_to 1845
   49.6640   61.2469   56.3393 LP  0  0  0  0  0  0  0  0  0  0  0  0  # atno 9001 bound_to 2219
   51.2164   60.8671   56.0038 LP  0  0  0  0  0  0  0  0  0  0  0  0  # atno 9002 bound_to 2219
   52.1507   55.6682   50.7463 LP  0  0  0  0  0  0  0  0  0  0  0  0  # atno 9031 bound_to 4319
   50.7006   54.9296   50.8815 LP  0  0  0  0  0  0  0  0  0  0  0  0  # atno 9032 bound_to 4319
   54.8142   74.7331   53.7920 LP  0  0  0  0  0  0  0  0  0  0  0  0  # atno 9039 bound_to 4440
   55.1835   73.6596   54.9658 LP  0  0  0  0  0  0  0  0  0  0  0  0  # atno 9040 bound_to 4440
   55.6125   76.2938   53.0463 LP  0  0  0  0  0  0  0  0  0  0  0  0  # atno 9041 bound_to 4442
   56.8412   76.3104   51.9707 LP  0  0  0  0  0  0  0  0  0  0  0  0  # atno 9042 bound_to 4442
   59.2601   61.8570   50.1525 LP  0  0  0  0  0  0  0  0  0  0  0  0  # atno 9052 bound_to 4474
   59.5090   63.4063   49.7004 LP  0  0  0  0  0  0  0  0  0  0  0  0  # atno 9053 bound_to 4474
   60.9602   65.6774   51.3595 LP  0  0  0  0  0  0  0  0  0  0  0  0  # atno 9054 bound_to 4476
   59.6888   66.0721   50.4137 LP  0  0  0  0  0  0  0  0  0  0  0  0  # atno 9055 bound_to 4476
   58.0731   63.9567   53.8559 LP  0  0  0  0  0  0  0  0  0  0  0  0  # atno 9056 bound_to 4478
   58.5164   65.0257   55.0080 LP  0  0  0  0  0  0  0  0  0  0  0  0  # atno 9057 bound_to 4478

$$$$
