C12H12ClN5O4S|Chlorsulfuron|mol|1|dock17
  -GOLD-   23022 1373D 1   1.00000     0.00000
 
 35 36  0  0  0  0  0  0  0  0  1 V2000
   57.0075   53.4729   41.4755 C   0  0  0  0  0  0  0  0  0  0  0  0
   57.2908   52.4456   42.5411 C   0  0  0  0  0  0  0  0  0  0  0  0
   58.1082   52.7374   43.5374 N   0  0  0  0  0  0  0  0  0  0  0  0
   58.3600   51.8326   44.4793 C   0  0  0  0  0  0  0  0  0  0  0  0
   57.7888   50.6355   44.4170 N   0  0  0  0  0  0  0  0  0  0  0  0
   56.9685   50.3462   43.4149 C   0  0  0  0  0  0  0  0  0  0  0  0
   56.7167   51.2564   42.4800 N   0  0  0  0  0  0  0  0  0  0  0  0
   56.3850   49.1273   43.3479 O   0  0  0  0  0  0  0  0  0  0  0  0
   57.4282   48.1831   43.0984 C   0  0  0  0  0  0  0  0  0  0  0  0
   59.2174   52.1387   45.5235 N   0  0  0  0  0  0  0  0  0  0  0  0
   58.8866   53.1011   46.4071 C   0  0  0  0  0  0  0  0  0  0  0  0
   57.8359   53.7007   46.2877 O   0  0  0  0  0  0  0  0  0  0  0  0
   59.7208   53.3989   47.4229 N   0  0  0  0  0  0  0  0  0  0  0  0
   59.3757   54.6643   48.4339 S   0  0  0  0  0  0  0  0  0  0  0  0
   58.0004   54.5299   48.7651 O   0  0  0  0  0  0  0  0  0  0  0  0
   60.4455   54.7152   49.3678 O   0  0  0  0  0  0  0  0  0  0  0  0
   59.4973   56.1444   47.4857 C   0  0  0  0  0  0  0  0  0  0  0  0
   58.7366   57.2471   47.8250 C   0  0  0  0  0  0  0  0  0  0  0  0
   58.8318   58.4085   47.0811 C   0  0  0  0  0  0  0  0  0  0  0  0
   59.6876   58.4674   45.9972 C   0  0  0  0  0  0  0  0  0  0  0  0
   60.4488   57.3650   45.6565 C   0  0  0  0  0  0  0  0  0  0  0  0
   60.3587   56.2047   46.4045 C   0  0  0  0  0  0  0  0  0  0  0  0
   61.3147   54.8200   45.9775 Cl  0  0  0  0  0  0  0  0  0  0  0  0
   57.7338   53.3700   40.6693 H   0  0  0  0  0  0  0  0  0  0  0  0
   56.0029   53.3198   41.0812 H   0  0  0  0  0  0  0  0  0  0  0  0
   57.0809   54.4719   41.9053 H   0  0  0  0  0  0  0  0  0  0  0  0
   57.0040   47.1810   43.0360 H   0  0  0  0  0  0  0  0  0  0  0  0
   57.9224   48.4277   42.1581 H   0  0  0  0  0  0  0  0  0  0  0  0
   58.1541   48.2205   43.9107 H   0  0  0  0  0  0  0  0  0  0  0  0
   60.0559   51.6603   45.6187 H   0  0  0  0  0  0  0  0  0  0  0  0
   60.5232   52.8720   47.5619 H   0  0  0  0  0  0  0  0  0  0  0  0
   58.0672   57.2014   48.6714 H   0  0  0  0  0  0  0  0  0  0  0  0
   58.2371   59.2700   47.3466 H   0  0  0  0  0  0  0  0  0  0  0  0
   59.7613   59.3749   45.4163 H   0  0  0  0  0  0  0  0  0  0  0  0
   61.1168   57.4108   44.8092 H   0  0  0  0  0  0  0  0  0  0  0  0
  1  2  1  0  0  0  0
  2  3  2  0  0  0  0
  3  4  1  0  0  0  0
  4  5  2  0  0  0  0
  5  6  1  0  0  0  0
  6  7  2  0  0  0  0
  2  7  1  0  0  0  0
  6  8  1  0  0  0  0
  8  9  1  0  0  0  0
  4 10  1  0  0  0  0
 10 11  1  0  0  0  0
 11 12  2  0  0  0  0
 11 13  1  0  0  0  0
 13 14  1  0  0  0  0
 14 15  2  0  0  0  0
 14 16  2  0  0  0  0
 14 17  1  0  0  0  0
 17 18  2  0  0  0  0
 18 19  1  0  0  0  0
 19 20  2  0  0  0  0
 20 21  1  0  0  0  0
 21 22  2  0  0  0  0
 17 22  1  0  0  0  0
 22 23  1  0  0  0  0
  1 24  1  0  0  0  0
  1 25  1  0  0  0  0
  1 26  1  0  0  0  0
  9 27  1  0  0  0  0
  9 28  1  0  0  0  0
  9 29  1  0  0  0  0
 10 30  1  0  0  0  0
 13 31  1  0  0  0  0
 18 32  1  0  0  0  0
 19 33  1  0  0  0  0
 20 34  1  0  0  0  0
 21 35  1  0  0  0  0
M  END
> <Gold.Version>
2021.2.0

> <Gold.Id.Protein>
1YHZ|1YHZ_protein|mol2

> <Gold.PLP.Fitness>
42.3192

> <Gold.PLP.PLP>
-41.3939

> <Gold.PLP.part.hbond>
-1.0000

> <Gold.PLP.part.metal>
0.0000

> <Gold.PLP.part.buried>
-4.4639

> <Gold.PLP.part.nonpolar>
-35.6930

> <Gold.PLP.part.repulsive>
0.2412

> <Gold.PLP.ligand.clash>
0.0000

> <Gold.PLP.ligand.torsion>
2.3820

> <Gold.PLP.Chemscore.Hbond>
0.8000

> <Gold.PLP.Chemscore.CHOScore>
0.0000

> <Gold.PLP.Chemscore.Metal>
0.0000

> <Gold.Chemscore.Hbonds>
donor molecule, donor type, donor heavy atom, donor atom, acceptor molecule, acceptor atom, score
      P1  H  2206  5009       L1    15  0.80

> <Gold.PLP.Chemscore.Internal.Correction>
3.2893

> <Gold.Protein.RotatedTorsions>
[ 6671 1667 1666 1664 ] final   72.33 input   60.00 | X-H torsion
[ 6844 1845 1844 1841 ] final   10.42 input   60.00 | X-H torsion
[ 5051 2219 2218 2215 ] final -159.63 input   60.00 | X-H torsion
[ 5018 2233 2232 2231 ] final    9.46 input   59.99 | X-H torsion
[ 5515 4319 4318 4315 ] final  -21.37 input   60.00 | X-H torsion
[ 5604 4440 4439 4437 ] final  136.03 input   60.00 | X-H torsion
[ 5608 4442 4441 4439 ] final  -38.31 input   60.00 | X-H torsion
[ 5645 4474 4473 4472 ] final -113.68 input   60.00 | X-H torsion
[ 5630 4476 4475 4473 ] final -134.05 input   60.00 | X-H torsion
[ 5635 4478 4477 4475 ] final  -54.34 input   60.00 | X-H torsion

> <Gold.Protein.ActiveResidues>
 TYR305  THR331  LEU332  MET333  LEU349  GLY350  MET351  HIS352  GLY353  ASN358 
 VAL372  ARG373  PHE374  ASP375  ASP376  ARG377  VAL378  THR379  GLY380  LYS381 
 LEU382  PHE385  LYS403  ASN404  MET490  GLY508  GLY509  TRP574  ILE651  PRO652 
 SER653  GLY654  GLY655  FAD701 

> <Gold.Protein.RotatedAtoms>
   42.9269   53.1185   58.7326 H   0  0  0  0  0  0  0  0  0  0  0  0  # atno 5018 bound_to 2233
   41.4249   53.7995   58.8984 H   0  0  0  0  0  0  0  0  0  0  0  0  # atno 5019 bound_to 2233
   41.9530   53.3106   57.4053 H   0  0  0  0  0  0  0  0  0  0  0  0  # atno 5020 bound_to 2233
   50.1952   62.3827   56.0313 H   0  0  0  0  0  0  0  0  0  0  0  0  # atno 5051 bound_to 2219
   50.9914   55.1814   51.1776 H   0  0  0  0  0  0  0  0  0  0  0  0  # atno 5515 bound_to 4319
   54.8375   74.7545   53.8902 H   0  0  0  0  0  0  0  0  0  0  0  0  # atno 5604 bound_to 4440
   56.2255   76.0137   52.0966 H   0  0  0  0  0  0  0  0  0  0  0  0  # atno 5608 bound_to 4442
   60.6131   66.0842   51.3154 H   0  0  0  0  0  0  0  0  0  0  0  0  # atno 5630 bound_to 4476
   57.8800   64.4020   54.0652 H   0  0  0  0  0  0  0  0  0  0  0  0  # atno 5635 bound_to 4478
   58.8709   63.6549   49.8706 H   0  0  0  0  0  0  0  0  0  0  0  0  # atno 5645 bound_to 4474
   55.1880   65.3602   58.4987 H   0  0  0  0  0  0  0  0  0  0  0  0  # atno 6671 bound_to 1667
   62.5951   66.8175   57.2685 H   0  0  0  0  0  0  0  0  0  0  0  0  # atno 6844 bound_to 1845
   55.9327   66.7307   58.0346 LP  0  0  0  0  0  0  0  0  0  0  0  0  # atno 8952 bound_to 1667
   54.3745   66.7694   58.5216 LP  0  0  0  0  0  0  0  0  0  0  0  0  # atno 8953 bound_to 1667
   61.3055   67.7467   57.6172 LP  0  0  0  0  0  0  0  0  0  0  0  0  # atno 8956 bound_to 1845
   61.4678   67.0958   56.1284 LP  0  0  0  0  0  0  0  0  0  0  0  0  # atno 8957 bound_to 1845
   49.9647   60.8002   56.3320 LP  0  0  0  0  0  0  0  0  0  0  0  0  # atno 9001 bound_to 2219
   51.4359   61.3415   55.8747 LP  0  0  0  0  0  0  0  0  0  0  0  0  # atno 9002 bound_to 2219
   51.0797   54.7190   49.6199 LP  0  0  0  0  0  0  0  0  0  0  0  0  # atno 9031 bound_to 4319
   52.2891   55.5913   50.2856 LP  0  0  0  0  0  0  0  0  0  0  0  0  # atno 9032 bound_to 4319
   55.1863   73.5599   54.9387 LP  0  0  0  0  0  0  0  0  0  0  0  0  # atno 9039 bound_to 4440
   54.8560   73.2100   53.3783 LP  0  0  0  0  0  0  0  0  0  0  0  0  # atno 9040 bound_to 4440
   57.2672   77.0942   52.7255 LP  0  0  0  0  0  0  0  0  0  0  0  0  # atno 9041 bound_to 4442
   55.8668   76.7615   53.4967 LP  0  0  0  0  0  0  0  0  0  0  0  0  # atno 9042 bound_to 4442
   58.2132   62.2737   50.4255 LP  0  0  0  0  0  0  0  0  0  0  0  0  # atno 9052 bound_to 4474
   59.7514   62.2865   49.8776 LP  0  0  0  0  0  0  0  0  0  0  0  0  # atno 9053 bound_to 4474
   59.6474   65.6526   50.0788 LP  0  0  0  0  0  0  0  0  0  0  0  0  # atno 9054 bound_to 4476
   60.8604   64.6677   50.5534 LP  0  0  0  0  0  0  0  0  0  0  0  0  # atno 9055 bound_to 4476
   58.9785   64.8347   55.1850 LP  0  0  0  0  0  0  0  0  0  0  0  0  # atno 9056 bound_to 4478
   59.2073   63.4879   54.2903 LP  0  0  0  0  0  0  0  0  0  0  0  0  # atno 9057 bound_to 4478

$$$$
