C12H12ClN5O4S
APtclcactv03292219083D 0   0.00000     0.00000
 
 35 36  0  0  0  0  0  0  0  0999 V2000
    5.8734    1.6828   -1.2737 C   0  0  0  0  0  0  0  0  0  0  0  0
    4.6977    0.9159   -0.7252 C   0  0  0  0  0  0  0  0  0  0  0  0
    3.5480    1.5326   -0.5162 N   0  0  0  0  0  0  0  0  0  0  0  0
    2.5087    0.8582   -0.0322 C   0  0  0  0  0  0  0  0  0  0  0  0
    2.6281   -0.4358    0.2407 N   0  0  0  0  0  0  0  0  0  0  0  0
    3.7844   -1.0516    0.0294 C   0  0  0  0  0  0  0  0  0  0  0  0
    4.8174   -0.3735   -0.4594 N   0  0  0  0  0  0  0  0  0  0  0  0
    3.9100   -2.3700    0.3068 O   0  0  0  0  0  0  0  0  0  0  0  0
    2.6449   -2.8096    0.8051 C   0  0  0  0  0  0  0  0  0  0  0  0
    1.3035    1.5051    0.1873 N   0  0  0  0  0  0  0  0  0  0  0  0
    0.2510    0.8209    0.6778 C   0  0  0  0  0  0  0  0  0  0  0  0
    0.3592   -0.3639    0.9275 O   0  0  0  0  0  0  0  0  0  0  0  0
   -0.9216    1.4502    0.8913 N   0  0  0  0  0  0  0  0  0  0  0  0
   -2.2493    0.5860    1.3737 S   0  0  0  0  0  0  0  0  0  0  0  0
   -1.8135   -0.2152    2.4633 O   0  0  0  0  0  0  0  0  0  0  0  0
   -3.3220    1.5171    1.4147 O   0  0  0  0  0  0  0  0  0  0  0  0
   -2.6433   -0.5413    0.0781 C   0  0  0  0  0  0  0  0  0  0  0  0
   -2.5608   -1.9031    0.2980 C   0  0  0  0  0  0  0  0  0  0  0  0
   -2.8698   -2.7878   -0.7185 C   0  0  0  0  0  0  0  0  0  0  0  0
   -3.2610   -2.3108   -1.9554 C   0  0  0  0  0  0  0  0  0  0  0  0
   -3.3435   -0.9488   -2.1768 C   0  0  0  0  0  0  0  0  0  0  0  0
   -3.0407   -0.0632   -1.1581 C   0  0  0  0  0  0  0  0  0  0  0  0
   -3.1446    1.6474   -1.4352 Cl  0  0  0  0  0  0  0  0  0  0  0  0
    6.4537    2.0969   -0.4492 H   0  0  0  0  0  0  0  0  0  0  0  0
    6.5023    1.0131   -1.8603 H   0  0  0  0  0  0  0  0  0  0  0  0
    5.5145    2.4931   -1.9083 H   0  0  0  0  0  0  0  0  0  0  0  0
    2.6976   -3.8719    1.0436 H   0  0  0  0  0  0  0  0  0  0  0  0
    2.3933   -2.2473    1.7043 H   0  0  0  0  0  0  0  0  0  0  0  0
    1.8788   -2.6449    0.0474 H   0  0  0  0  0  0  0  0  0  0  0  0
    1.2171    2.4505   -0.0120 H   0  0  0  0  0  0  0  0  0  0  0  0
   -0.9877    2.4093    0.7625 H   0  0  0  0  0  0  0  0  0  0  0  0
   -2.2545   -2.2764    1.2641 H   0  0  0  0  0  0  0  0  0  0  0  0
   -2.8052   -3.8520   -0.5462 H   0  0  0  0  0  0  0  0  0  0  0  0
   -3.5020   -3.0024   -2.7492 H   0  0  0  0  0  0  0  0  0  0  0  0
   -3.6484   -0.5762   -3.1435 H   0  0  0  0  0  0  0  0  0  0  0  0
  1  2  1  0  0  0  0
  2  3  2  0  0  0  0
  3  4  1  0  0  0  0
  4  5  2  0  0  0  0
  5  6  1  0  0  0  0
  6  7  2  0  0  0  0
  2  7  1  0  0  0  0
  6  8  1  0  0  0  0
  8  9  1  0  0  0  0
  4 10  1  0  0  0  0
 10 11  1  0  0  0  0
 11 12  2  0  0  0  0
 11 13  1  0  0  0  0
 13 14  1  0  0  0  0
 14 15  2  0  0  0  0
 14 16  2  0  0  0  0
 14 17  1  0  0  0  0
 17 18  2  0  0  0  0
 18 19  1  0  0  0  0
 19 20  2  0  0  0  0
 20 21  1  0  0  0  0
 21 22  2  0  0  0  0
 17 22  1  0  0  0  0
 22 23  1  0  0  0  0
  1 24  1  0  0  0  0
  1 25  1  0  0  0  0
  1 26  1  0  0  0  0
  9 27  1  0  0  0  0
  9 28  1  0  0  0  0
  9 29  1  0  0  0  0
 10 30  1  0  0  0  0
 13 31  1  0  0  0  0
 18 32  1  0  0  0  0
 19 33  1  0  0  0  0
 20 34  1  0  0  0  0
 21 35  1  0  0  0  0
M  END
$$$$