C12H12ClN5O4S|Chlorsulfuron|mol|1|dock45
  -GOLD-   2292221543D 1   1.00000     0.00000
 
 35 36  0  0  0  0  0  0  0  0  1 V2000
   58.5928  -77.0133  -17.3362 C   0  0  0  0  0  0  0  0  0  0  0  0
   59.5167  -76.5514  -16.2388 C   0  0  0  0  0  0  0  0  0  0  0  0
   60.4717  -77.3523  -15.8005 N   0  0  0  0  0  0  0  0  0  0  0  0
   61.2885  -76.9472  -14.8320 C   0  0  0  0  0  0  0  0  0  0  0  0
   61.1429  -75.7366  -14.3062 N   0  0  0  0  0  0  0  0  0  0  0  0
   60.1825  -74.9351  -14.7492 C   0  0  0  0  0  0  0  0  0  0  0  0
   59.3732  -75.3437  -15.7207 N   0  0  0  0  0  0  0  0  0  0  0  0
   60.0307  -73.7010  -14.2155 O   0  0  0  0  0  0  0  0  0  0  0  0
   59.3967  -72.8955  -15.2111 C   0  0  0  0  0  0  0  0  0  0  0  0
   62.2895  -77.7873  -14.3722 N   0  0  0  0  0  0  0  0  0  0  0  0
   63.0787  -78.4383  -15.2496 C   0  0  0  0  0  0  0  0  0  0  0  0
   62.9122  -78.2884  -16.4444 O   0  0  0  0  0  0  0  0  0  0  0  0
   64.0526  -79.2558  -14.8023 N   0  0  0  0  0  0  0  0  0  0  0  0
   64.9393  -80.1521  -15.8760 S   0  0  0  0  0  0  0  0  0  0  0  0
   65.1874  -79.2952  -16.9820 O   0  0  0  0  0  0  0  0  0  0  0  0
   65.9359  -80.8061  -15.1024 O   0  0  0  0  0  0  0  0  0  0  0  0
   63.8917  -81.4305  -16.4864 C   0  0  0  0  0  0  0  0  0  0  0  0
   63.6522  -81.5390  -17.8431 C   0  0  0  0  0  0  0  0  0  0  0  0
   62.8302  -82.5420  -18.3223 C   0  0  0  0  0  0  0  0  0  0  0  0
   62.2470  -83.4366  -17.4447 C   0  0  0  0  0  0  0  0  0  0  0  0
   62.4853  -83.3289  -16.0874 C   0  0  0  0  0  0  0  0  0  0  0  0
   63.3130  -82.3295  -15.6080 C   0  0  0  0  0  0  0  0  0  0  0  0
   63.6133  -82.1939  -13.9035 Cl  0  0  0  0  0  0  0  0  0  0  0  0
   57.7261  -77.5077  -16.8975 H   0  0  0  0  0  0  0  0  0  0  0  0
   58.2639  -76.1537  -17.9201 H   0  0  0  0  0  0  0  0  0  0  0  0
   59.1203  -77.7128  -17.9848 H   0  0  0  0  0  0  0  0  0  0  0  0
   59.2527  -71.8866  -14.8246 H   0  0  0  0  0  0  0  0  0  0  0  0
   60.0244  -72.8575  -16.1014 H   0  0  0  0  0  0  0  0  0  0  0  0
   58.4295  -73.3282  -15.4667 H   0  0  0  0  0  0  0  0  0  0  0  0
   62.4224  -77.9071  -13.4188 H   0  0  0  0  0  0  0  0  0  0  0  0
   64.2340  -79.3189  -13.8516 H   0  0  0  0  0  0  0  0  0  0  0  0
   64.1071  -80.8399  -18.5292 H   0  0  0  0  0  0  0  0  0  0  0  0
   62.6433  -82.6264  -19.3826 H   0  0  0  0  0  0  0  0  0  0  0  0
   61.6046  -84.2198  -17.8196 H   0  0  0  0  0  0  0  0  0  0  0  0
   62.0290  -84.0274  -15.4017 H   0  0  0  0  0  0  0  0  0  0  0  0
  1  2  1  0  0  0  0
  2  3  2  0  0  0  0
  3  4  1  0  0  0  0
  4  5  2  0  0  0  0
  5  6  1  0  0  0  0
  6  7  2  0  0  0  0
  2  7  1  0  0  0  0
  6  8  1  0  0  0  0
  8  9  1  0  0  0  0
  4 10  1  0  0  0  0
 10 11  1  0  0  0  0
 11 12  2  0  0  0  0
 11 13  1  0  0  0  0
 13 14  1  0  0  0  0
 14 15  2  0  0  0  0
 14 16  2  0  0  0  0
 14 17  1  0  0  0  0
 17 18  2  0  0  0  0
 18 19  1  0  0  0  0
 19 20  2  0  0  0  0
 20 21  1  0  0  0  0
 21 22  2  0  0  0  0
 17 22  1  0  0  0  0
 22 23  1  0  0  0  0
  1 24  1  0  0  0  0
  1 25  1  0  0  0  0
  1 26  1  0  0  0  0
  9 27  1  0  0  0  0
  9 28  1  0  0  0  0
  9 29  1  0  0  0  0
 10 30  1  0  0  0  0
 13 31  1  0  0  0  0
 18 32  1  0  0  0  0
 19 33  1  0  0  0  0
 20 34  1  0  0  0  0
 21 35  1  0  0  0  0
M  END
> <Gold.Version>
2021.2.0

> <Gold.Id.Protein>
5K6Q|5K6Q_protein|mol2

> <Gold.PLP.Fitness>
30.0939

> <Gold.PLP.PLP>
-15.6499

> <Gold.PLP.part.hbond>
-7.8180

> <Gold.PLP.part.metal>
0.0000

> <Gold.PLP.part.buried>
-4.3562

> <Gold.PLP.part.nonpolar>
-5.7999

> <Gold.PLP.part.repulsive>
0.5910

> <Gold.PLP.ligand.clash>
0.0000

> <Gold.PLP.ligand.torsion>
2.3092

> <Gold.PLP.Chemscore.Hbond>
5.2639

> <Gold.PLP.Chemscore.CHOScore>
0.0000

> <Gold.PLP.Chemscore.Metal>
0.0000

> <Gold.Chemscore.Hbonds>
donor molecule, donor type, donor heavy atom, donor atom, acceptor molecule, acceptor atom, score
      L1  H    10    30       P1  2230  1.00
      L1  H    13    31       P1  2231  1.00
      P1  H  2203  7120       L1     8  0.85
      P1  H  2204  7143       L1     8  0.44
      P1  H  2242  7198       L1    16  0.98
      P1  H  4723  8580       L1    16  1.00

> <Gold.PLP.Chemscore.Internal.Correction>
3.2706

> <Gold.Protein.RotatedTorsions>
[ 5877 1703 1702 1700 ] final -165.23 input   60.01 | X-H torsion
[ 6057 1881 1880 1877 ] final    9.23 input   60.00 | X-H torsion
[ 7193 2255 2254 2251 ] final -156.41 input   60.00 | X-H torsion
[ 7182 2269 2268 2267 ] final  122.47 input   59.99 | X-H torsion
[ 6931 4361 4360 4357 ] final  -38.61 input   60.01 | X-H torsion
[ 8180 4471 4470 4468 ] final -168.48 input   60.00 | X-H torsion
[ 8184 4473 4472 4470 ] final  -66.43 input   60.00 | X-H torsion
[ 8203 4505 4504 4503 ] final -110.34 input   60.00 | X-H torsion
[ 8212 4507 4506 4504 ] final  111.38 input   60.00 | X-H torsion
[ 8221 4509 4508 4506 ] final  -86.41 input   60.00 | X-H torsion

> <Gold.Protein.ActiveResidues>
 TYR305  THR331  LEU332  MET333  LEU349  GLY350  MET351  HIS352  GLY353  ASN358 
 VAL372  ARG373  PHE374  ASP375  ASP376  ARG377  VAL378  THR379  GLY380  LYS381 
 LEU382  PHE385  ASN404  GLY508  GLY509  TRP574  ILE651  PRO652  SER653  GLY654 
 GLY655  FAD702  HOH839  HOH865  HOH881  HOH913  HOH945  HOH958  HOH960  HOH966 
 HOH968 

> <Gold.Protein.RotatedAtoms>
   59.5067  -74.0576   -3.4220 H   0  0  0  0  0  0  0  0  0  0  0  0  # atno 5877 bound_to 1703
   62.8401  -66.8828   -4.6323 H   0  0  0  0  0  0  0  0  0  0  0  0  # atno 6057 bound_to 1881
   68.8570  -80.8536  -11.2760 H   0  0  0  0  0  0  0  0  0  0  0  0  # atno 6931 bound_to 4361
   63.2642  -89.6333   -1.0529 H   0  0  0  0  0  0  0  0  0  0  0  0  # atno 7182 bound_to 2269
   61.7201  -89.9808   -1.5454 H   0  0  0  0  0  0  0  0  0  0  0  0  # atno 7183 bound_to 2269
   63.0141  -90.5951   -2.3795 H   0  0  0  0  0  0  0  0  0  0  0  0  # atno 7184 bound_to 2269
   60.3855  -79.9679   -5.7040 H   0  0  0  0  0  0  0  0  0  0  0  0  # atno 7193 bound_to 2255
   52.5483  -69.8058   -8.5563 H   0  0  0  0  0  0  0  0  0  0  0  0  # atno 8180 bound_to 4471
   51.3248  -67.9105   -9.3113 H   0  0  0  0  0  0  0  0  0  0  0  0  # atno 8184 bound_to 4473
   63.6286  -72.1146  -12.0244 H   0  0  0  0  0  0  0  0  0  0  0  0  # atno 8203 bound_to 4505
   62.4909  -69.8514  -11.6370 H   0  0  0  0  0  0  0  0  0  0  0  0  # atno 8212 bound_to 4507
   62.1694  -72.2780   -7.7951 H   0  0  0  0  0  0  0  0  0  0  0  0  # atno 8221 bound_to 4509
   61.0959  -74.0990   -3.0742 LP  0  0  0  0  0  0  0  0  0  0  0  0  # atno 9612 bound_to 1703
   60.4337  -72.7544   -3.7225 LP  0  0  0  0  0  0  0  0  0  0  0  0  # atno 9613 bound_to 1703
   61.4595  -67.6533   -4.2471 LP  0  0  0  0  0  0  0  0  0  0  0  0  # atno 9616 bound_to 1881
   62.1055  -67.8253   -5.7370 LP  0  0  0  0  0  0  0  0  0  0  0  0  # atno 9617 bound_to 1881
   61.5270  -81.0951   -5.4316 LP  0  0  0  0  0  0  0  0  0  0  0  0  # atno 9661 bound_to 2255
   61.9517  -79.6106   -5.9630 LP  0  0  0  0  0  0  0  0  0  0  0  0  # atno 9662 bound_to 2255
   68.8368  -81.3668  -12.8202 LP  0  0  0  0  0  0  0  0  0  0  0  0  # atno 9687 bound_to 4361
   70.2388  -81.3418  -11.9833 LP  0  0  0  0  0  0  0  0  0  0  0  0  # atno 9688 bound_to 4361
   52.5209  -69.3720   -6.9882 LP  0  0  0  0  0  0  0  0  0  0  0  0  # atno 9695 bound_to 4471
   53.8282  -70.1312   -7.6056 LP  0  0  0  0  0  0  0  0  0  0  0  0  # atno 9696 bound_to 4471
   50.6722  -66.9438   -8.1766 LP  0  0  0  0  0  0  0  0  0  0  0  0  # atno 9697 bound_to 4473
   51.1621  -68.4516   -7.7853 LP  0  0  0  0  0  0  0  0  0  0  0  0  # atno 9698 bound_to 4473
   64.3024  -73.4003  -11.2888 LP  0  0  0  0  0  0  0  0  0  0  0  0  # atno 9706 bound_to 4505
   65.2482  -72.2217  -11.9076 LP  0  0  0  0  0  0  0  0  0  0  0  0  # atno 9707 bound_to 4505
   64.0347  -69.6753  -11.1536 LP  0  0  0  0  0  0  0  0  0  0  0  0  # atno 9708 bound_to 4507
   62.8235  -69.0048  -10.2877 LP  0  0  0  0  0  0  0  0  0  0  0  0  # atno 9709 bound_to 4507
   63.2211  -71.3936   -6.9234 LP  0  0  0  0  0  0  0  0  0  0  0  0  # atno 9710 bound_to 4509
   63.7381  -72.2324   -8.2255 LP  0  0  0  0  0  0  0  0  0  0  0  0  # atno 9711 bound_to 4509

$$$$
