C12H12ClN5O4S|Chlorsulfuron|mol|1|dock1
  -GOLD-   2292221533D 1   1.00000     0.00000
 
 35 36  0  0  0  0  0  0  0  0  1 V2000
   63.1893  -74.3949  -18.9735 C   0  0  0  0  0  0  0  0  0  0  0  0
   64.0446  -74.7298  -17.7787 C   0  0  0  0  0  0  0  0  0  0  0  0
   63.7392  -75.7670  -17.0193 N   0  0  0  0  0  0  0  0  0  0  0  0
   64.4923  -76.0649  -15.9642 C   0  0  0  0  0  0  0  0  0  0  0  0
   65.5518  -75.3184  -15.6750 N   0  0  0  0  0  0  0  0  0  0  0  0
   65.8553  -74.2776  -16.4402 C   0  0  0  0  0  0  0  0  0  0  0  0
   65.1020  -73.9884  -17.4960 N   0  0  0  0  0  0  0  0  0  0  0  0
   66.9338  -73.5143  -16.1483 O   0  0  0  0  0  0  0  0  0  0  0  0
   66.7901  -73.0990  -14.7886 C   0  0  0  0  0  0  0  0  0  0  0  0
   64.1716  -77.1521  -15.1678 N   0  0  0  0  0  0  0  0  0  0  0  0
   64.5164  -78.3961  -15.5552 C   0  0  0  0  0  0  0  0  0  0  0  0
   65.1087  -78.5642  -16.6034 O   0  0  0  0  0  0  0  0  0  0  0  0
   64.2043  -79.4540  -14.7805 N   0  0  0  0  0  0  0  0  0  0  0  0
   64.5144  -80.9908  -15.3135 S   0  0  0  0  0  0  0  0  0  0  0  0
   65.7927  -80.9346  -15.9316 O   0  0  0  0  0  0  0  0  0  0  0  0
   64.1568  -81.8512  -14.2406 O   0  0  0  0  0  0  0  0  0  0  0  0
   63.3716  -81.3400  -16.6083 C   0  0  0  0  0  0  0  0  0  0  0  0
   63.8200  -81.4734  -17.9086 C   0  0  0  0  0  0  0  0  0  0  0  0
   62.9234  -81.7473  -18.9248 C   0  0  0  0  0  0  0  0  0  0  0  0
   61.5779  -81.8873  -18.6409 C   0  0  0  0  0  0  0  0  0  0  0  0
   61.1280  -81.7536  -17.3406 C   0  0  0  0  0  0  0  0  0  0  0  0
   62.0256  -81.4860  -16.3226 C   0  0  0  0  0  0  0  0  0  0  0  0
   61.4614  -81.3185  -14.6893 Cl  0  0  0  0  0  0  0  0  0  0  0  0
   62.3966  -73.7101  -18.6723 H   0  0  0  0  0  0  0  0  0  0  0  0
   63.8045  -73.9239  -19.7402 H   0  0  0  0  0  0  0  0  0  0  0  0
   62.7481  -75.3085  -19.3720 H   0  0  0  0  0  0  0  0  0  0  0  0
   67.6405  -72.4781  -14.5066 H   0  0  0  0  0  0  0  0  0  0  0  0
   65.8695  -72.5259  -14.6790 H   0  0  0  0  0  0  0  0  0  0  0  0
   66.7509  -73.9763  -14.1429 H   0  0  0  0  0  0  0  0  0  0  0  0
   63.6989  -77.0181  -14.3314 H   0  0  0  0  0  0  0  0  0  0  0  0
   63.7982  -79.3150  -13.9106 H   0  0  0  0  0  0  0  0  0  0  0  0
   64.8711  -81.3634  -18.1312 H   0  0  0  0  0  0  0  0  0  0  0  0
   63.2743  -81.8515  -19.9409 H   0  0  0  0  0  0  0  0  0  0  0  0
   60.8779  -82.1009  -19.4351 H   0  0  0  0  0  0  0  0  0  0  0  0
   60.0766  -81.8622  -17.1190 H   0  0  0  0  0  0  0  0  0  0  0  0
  1  2  1  0  0  0  0
  2  3  2  0  0  0  0
  3  4  1  0  0  0  0
  4  5  2  0  0  0  0
  5  6  1  0  0  0  0
  6  7  2  0  0  0  0
  2  7  1  0  0  0  0
  6  8  1  0  0  0  0
  8  9  1  0  0  0  0
  4 10  1  0  0  0  0
 10 11  1  0  0  0  0
 11 12  2  0  0  0  0
 11 13  1  0  0  0  0
 13 14  1  0  0  0  0
 14 15  2  0  0  0  0
 14 16  2  0  0  0  0
 14 17  1  0  0  0  0
 17 18  2  0  0  0  0
 18 19  1  0  0  0  0
 19 20  2  0  0  0  0
 20 21  1  0  0  0  0
 21 22  2  0  0  0  0
 17 22  1  0  0  0  0
 22 23  1  0  0  0  0
  1 24  1  0  0  0  0
  1 25  1  0  0  0  0
  1 26  1  0  0  0  0
  9 27  1  0  0  0  0
  9 28  1  0  0  0  0
  9 29  1  0  0  0  0
 10 30  1  0  0  0  0
 13 31  1  0  0  0  0
 18 32  1  0  0  0  0
 19 33  1  0  0  0  0
 20 34  1  0  0  0  0
 21 35  1  0  0  0  0
M  END
> <Gold.Version>
2021.2.0

> <Gold.Id.Protein>
5K6Q|5K6Q_protein|mol2

> <Gold.PLP.Fitness>
23.2172

> <Gold.PLP.PLP>
-18.4287

> <Gold.PLP.part.hbond>
-5.0294

> <Gold.PLP.part.metal>
0.0000

> <Gold.PLP.part.buried>
-5.0219

> <Gold.PLP.part.nonpolar>
-10.3760

> <Gold.PLP.part.repulsive>
1.2654

> <Gold.PLP.ligand.clash>
0.0000

> <Gold.PLP.ligand.torsion>
2.2796

> <Gold.PLP.Chemscore.Hbond>
2.0000

> <Gold.PLP.Chemscore.CHOScore>
0.0000

> <Gold.PLP.Chemscore.Metal>
0.0000

> <Gold.Chemscore.Hbonds>
donor molecule, donor type, donor heavy atom, donor atom, acceptor molecule, acceptor atom, score
      L1  H    13    31       P1  2231  1.00
      P1  H  4723  8580       L1    15  1.00

> <Gold.PLP.Chemscore.Internal.Correction>
3.3478

> <Gold.Protein.RotatedTorsions>
[ 5877 1703 1702 1700 ] final  -33.06 input   60.01 | X-H torsion
[ 6057 1881 1880 1877 ] final   71.28 input   60.00 | X-H torsion
[ 7193 2255 2254 2251 ] final   50.62 input   60.00 | X-H torsion
[ 7182 2269 2268 2267 ] final   -3.10 input   59.99 | X-H torsion
[ 6931 4361 4360 4357 ] final  106.78 input   60.01 | X-H torsion
[ 8180 4471 4470 4468 ] final   82.75 input   60.00 | X-H torsion
[ 8184 4473 4472 4470 ] final   36.20 input   60.00 | X-H torsion
[ 8203 4505 4504 4503 ] final -177.71 input   60.00 | X-H torsion
[ 8212 4507 4506 4504 ] final  -58.41 input   60.00 | X-H torsion
[ 8221 4509 4508 4506 ] final   42.60 input   60.00 | X-H torsion

> <Gold.Protein.ActiveResidues>
 TYR305  THR331  LEU332  MET333  LEU349  GLY350  MET351  HIS352  GLY353  ASN358 
 VAL372  ARG373  PHE374  ASP375  ASP376  ARG377  VAL378  THR379  GLY380  LYS381 
 LEU382  PHE385  ASN404  GLY508  GLY509  TRP574  ILE651  PRO652  SER653  GLY654 
 GLY655  FAD702  HOH839  HOH865  HOH881  HOH913  HOH945  HOH958  HOH960  HOH966 
 HOH968 

> <Gold.Protein.RotatedAtoms>
   60.6233  -72.7841   -3.6688 H   0  0  0  0  0  0  0  0  0  0  0  0  # atno 5877 bound_to 1703
   62.7941  -67.2732   -5.5137 H   0  0  0  0  0  0  0  0  0  0  0  0  # atno 6057 bound_to 1881
   70.1386  -81.4553  -12.3675 H   0  0  0  0  0  0  0  0  0  0  0  0  # atno 6931 bound_to 4361
   62.9257  -90.6120   -2.4036 H   0  0  0  0  0  0  0  0  0  0  0  0  # atno 7182 bound_to 2269
   63.3337  -89.6699   -1.1024 H   0  0  0  0  0  0  0  0  0  0  0  0  # atno 7183 bound_to 2269
   61.7384  -89.9270   -1.4715 H   0  0  0  0  0  0  0  0  0  0  0  0  # atno 7184 bound_to 2269
   61.9777  -80.8379   -5.5544 H   0  0  0  0  0  0  0  0  0  0  0  0  # atno 7193 bound_to 2255
   52.3901  -69.3442   -7.1145 H   0  0  0  0  0  0  0  0  0  0  0  0  # atno 8180 bound_to 4471
   51.2702  -68.5809   -8.0138 H   0  0  0  0  0  0  0  0  0  0  0  0  # atno 8184 bound_to 4473
   63.5973  -73.0228  -11.5217 H   0  0  0  0  0  0  0  0  0  0  0  0  # atno 8203 bound_to 4505
   63.8519  -69.2474  -10.5140 H   0  0  0  0  0  0  0  0  0  0  0  0  # atno 8212 bound_to 4507
   63.8192  -72.1458   -8.1376 H   0  0  0  0  0  0  0  0  0  0  0  0  # atno 8221 bound_to 4509
   59.4396  -73.8882   -3.5028 LP  0  0  0  0  0  0  0  0  0  0  0  0  # atno 9612 bound_to 1703
   60.9655  -74.2477   -3.0454 LP  0  0  0  0  0  0  0  0  0  0  0  0  # atno 9613 bound_to 1703
   62.1955  -67.0627   -4.0152 LP  0  0  0  0  0  0  0  0  0  0  0  0  # atno 9616 bound_to 1881
   61.4159  -68.0229   -5.0814 LP  0  0  0  0  0  0  0  0  0  0  0  0  # atno 9617 bound_to 1881
   61.4837  -79.3549   -6.0070 LP  0  0  0  0  0  0  0  0  0  0  0  0  # atno 9661 bound_to 2255
   60.3915  -80.4748   -5.5383 LP  0  0  0  0  0  0  0  0  0  0  0  0  # atno 9662 bound_to 2255
   69.2453  -80.8754  -11.1372 LP  0  0  0  0  0  0  0  0  0  0  0  0  # atno 9687 bound_to 4361
   68.5398  -81.2273  -12.5672 LP  0  0  0  0  0  0  0  0  0  0  0  0  # atno 9688 bound_to 4361
   53.8091  -70.0753   -7.4309 LP  0  0  0  0  0  0  0  0  0  0  0  0  # atno 9695 bound_to 4471
   52.6995  -69.8927   -8.6150 LP  0  0  0  0  0  0  0  0  0  0  0  0  # atno 9696 bound_to 4471
   51.2278  -67.6459   -9.3449 LP  0  0  0  0  0  0  0  0  0  0  0  0  # atno 9697 bound_to 4473
   50.6615  -67.0745   -7.9238 LP  0  0  0  0  0  0  0  0  0  0  0  0  # atno 9698 bound_to 4473
   65.2230  -72.9526  -11.5030 LP  0  0  0  0  0  0  0  0  0  0  0  0  # atno 9706 bound_to 4505
   64.3591  -71.7547  -12.1997 LP  0  0  0  0  0  0  0  0  0  0  0  0  # atno 9707 bound_to 4505
   62.2443  -69.2618  -10.7656 LP  0  0  0  0  0  0  0  0  0  0  0  0  # atno 9708 bound_to 4507
   63.2434  -70.0265  -11.8066 LP  0  0  0  0  0  0  0  0  0  0  0  0  # atno 9709 bound_to 4507
   62.2213  -72.3540   -7.9106 LP  0  0  0  0  0  0  0  0  0  0  0  0  # atno 9710 bound_to 4509
   63.0766  -71.4052   -6.8934 LP  0  0  0  0  0  0  0  0  0  0  0  0  # atno 9711 bound_to 4509

$$$$
