C12H12ClN5O4S|Chlorsulfuron|mol|1|dock10
  -GOLD-   2292221533D 1   1.00000     0.00000
 
 35 36  0  0  0  0  0  0  0  0  1 V2000
   62.9958  -74.6107  -18.4010 C   0  0  0  0  0  0  0  0  0  0  0  0
   62.2996  -75.1132  -17.1625 C   0  0  0  0  0  0  0  0  0  0  0  0
   62.8482  -76.0759  -16.4426 N   0  0  0  0  0  0  0  0  0  0  0  0
   62.2360  -76.5214  -15.3490 C   0  0  0  0  0  0  0  0  0  0  0  0
   61.0726  -75.9973  -14.9816 N   0  0  0  0  0  0  0  0  0  0  0  0
   60.5248  -75.0307  -15.7072 C   0  0  0  0  0  0  0  0  0  0  0  0
   61.1441  -74.5862  -16.7957 N   0  0  0  0  0  0  0  0  0  0  0  0
   59.3391  -74.4946  -15.3362 O   0  0  0  0  0  0  0  0  0  0  0  0
   59.5675  -73.1019  -15.1121 C   0  0  0  0  0  0  0  0  0  0  0  0
   62.8111  -77.5310  -14.5947 N   0  0  0  0  0  0  0  0  0  0  0  0
   63.5200  -78.5043  -15.2003 C   0  0  0  0  0  0  0  0  0  0  0  0
   63.6546  -78.4962  -16.4085 O   0  0  0  0  0  0  0  0  0  0  0  0
   64.0795  -79.4866  -14.4665 N   0  0  0  0  0  0  0  0  0  0  0  0
   64.8426  -80.7496  -15.2182 S   0  0  0  0  0  0  0  0  0  0  0  0
   66.0207  -80.2017  -15.7934 O   0  0  0  0  0  0  0  0  0  0  0  0
   64.8032  -81.8291  -14.2949 O   0  0  0  0  0  0  0  0  0  0  0  0
   63.8324  -81.2431  -16.5749 C   0  0  0  0  0  0  0  0  0  0  0  0
   64.3820  -81.3662  -17.8369 C   0  0  0  0  0  0  0  0  0  0  0  0
   63.5895  -81.7533  -18.9015 C   0  0  0  0  0  0  0  0  0  0  0  0
   62.2470  -82.0170  -18.7046 C   0  0  0  0  0  0  0  0  0  0  0  0
   61.6960  -81.8938  -17.4428 C   0  0  0  0  0  0  0  0  0  0  0  0
   62.4899  -81.5127  -16.3759 C   0  0  0  0  0  0  0  0  0  0  0  0
   61.7987  -81.3583  -14.7909 Cl  0  0  0  0  0  0  0  0  0  0  0  0
   62.6692  -75.1925  -19.2628 H   0  0  0  0  0  0  0  0  0  0  0  0
   62.7479  -73.5607  -18.5564 H   0  0  0  0  0  0  0  0  0  0  0  0
   64.0740  -74.7153  -18.2795 H   0  0  0  0  0  0  0  0  0  0  0  0
   58.6353  -72.6249  -14.8095 H   0  0  0  0  0  0  0  0  0  0  0  0
   60.3114  -72.9777  -14.3252 H   0  0  0  0  0  0  0  0  0  0  0  0
   59.9301  -72.6407  -16.0308 H   0  0  0  0  0  0  0  0  0  0  0  0
   62.7037  -77.5375  -13.6307 H   0  0  0  0  0  0  0  0  0  0  0  0
   64.0353  -79.4537  -13.4981 H   0  0  0  0  0  0  0  0  0  0  0  0
   65.4307  -81.1597  -17.9915 H   0  0  0  0  0  0  0  0  0  0  0  0
   64.0194  -81.8495  -19.8876 H   0  0  0  0  0  0  0  0  0  0  0  0
   61.6284  -82.3191  -19.5367 H   0  0  0  0  0  0  0  0  0  0  0  0
   60.6469  -82.0990  -17.2891 H   0  0  0  0  0  0  0  0  0  0  0  0
  1  2  1  0  0  0  0
  2  3  2  0  0  0  0
  3  4  1  0  0  0  0
  4  5  2  0  0  0  0
  5  6  1  0  0  0  0
  6  7  2  0  0  0  0
  2  7  1  0  0  0  0
  6  8  1  0  0  0  0
  8  9  1  0  0  0  0
  4 10  1  0  0  0  0
 10 11  1  0  0  0  0
 11 12  2  0  0  0  0
 11 13  1  0  0  0  0
 13 14  1  0  0  0  0
 14 15  2  0  0  0  0
 14 16  2  0  0  0  0
 14 17  1  0  0  0  0
 17 18  2  0  0  0  0
 18 19  1  0  0  0  0
 19 20  2  0  0  0  0
 20 21  1  0  0  0  0
 21 22  2  0  0  0  0
 17 22  1  0  0  0  0
 22 23  1  0  0  0  0
  1 24  1  0  0  0  0
  1 25  1  0  0  0  0
  1 26  1  0  0  0  0
  9 27  1  0  0  0  0
  9 28  1  0  0  0  0
  9 29  1  0  0  0  0
 10 30  1  0  0  0  0
 13 31  1  0  0  0  0
 18 32  1  0  0  0  0
 19 33  1  0  0  0  0
 20 34  1  0  0  0  0
 21 35  1  0  0  0  0
M  END
> <Gold.Version>
2021.2.0

> <Gold.Id.Protein>
5K6Q|5K6Q_protein|mol2

> <Gold.PLP.Fitness>
22.0427

> <Gold.PLP.PLP>
-16.7005

> <Gold.PLP.part.hbond>
-5.4936

> <Gold.PLP.part.metal>
0.0000

> <Gold.PLP.part.buried>
-4.4880

> <Gold.PLP.part.nonpolar>
-9.1345

> <Gold.PLP.part.repulsive>
0.6032

> <Gold.PLP.ligand.clash>
0.0000

> <Gold.PLP.ligand.torsion>
1.8946

> <Gold.PLP.Chemscore.Hbond>
1.9512

> <Gold.PLP.Chemscore.CHOScore>
0.0000

> <Gold.PLP.Chemscore.Metal>
0.0000

> <Gold.Chemscore.Hbonds>
donor molecule, donor type, donor heavy atom, donor atom, acceptor molecule, acceptor atom, score
      L1  H    10    30       P1  2230  0.63
      L1  H    13    31       P1  2231  0.99
      P1  H  2242  7198       L1    15  0.24
      P1  H  4723  8580       L1    16  0.09

> <Gold.PLP.Chemscore.Internal.Correction>
3.2778

> <Gold.Protein.RotatedTorsions>
[ 5877 1703 1702 1700 ] final -174.49 input   60.01 | X-H torsion
[ 6057 1881 1880 1877 ] final  -96.20 input   60.00 | X-H torsion
[ 7193 2255 2254 2251 ] final   70.81 input   60.00 | X-H torsion
[ 7182 2269 2268 2267 ] final  166.89 input   59.99 | X-H torsion
[ 6931 4361 4360 4357 ] final  -77.80 input   60.01 | X-H torsion
[ 8180 4471 4470 4468 ] final -155.46 input   60.00 | X-H torsion
[ 8184 4473 4472 4470 ] final -155.83 input   60.00 | X-H torsion
[ 8203 4505 4504 4503 ] final  142.59 input   60.00 | X-H torsion
[ 8212 4507 4506 4504 ] final  -16.66 input   60.00 | X-H torsion
[ 8221 4509 4508 4506 ] final  -21.66 input   60.00 | X-H torsion

> <Gold.Protein.ActiveResidues>
 TYR305  THR331  LEU332  MET333  LEU349  GLY350  MET351  HIS352  GLY353  ASN358 
 VAL372  ARG373  PHE374  ASP375  ASP376  ARG377  VAL378  THR379  GLY380  LYS381 
 LEU382  PHE385  ASN404  GLY508  GLY509  TRP574  ILE651  PRO652  SER653  GLY654 
 GLY655  FAD702  HOH839  HOH865  HOH881  HOH913  HOH945  HOH958  HOH960  HOH966 
 HOH968 

> <Gold.Protein.RotatedAtoms>
   59.5787  -74.1762   -3.3620 H   0  0  0  0  0  0  0  0  0  0  0  0  # atno 5877 bound_to 1703
   61.5936  -67.5107   -4.1112 H   0  0  0  0  0  0  0  0  0  0  0  0  # atno 6057 bound_to 1881
   68.4508  -80.9379  -11.7476 H   0  0  0  0  0  0  0  0  0  0  0  0  # atno 6931 bound_to 4361
   62.5705  -89.5096   -0.8891 H   0  0  0  0  0  0  0  0  0  0  0  0  # atno 7182 bound_to 2269
   61.8894  -90.3948   -2.1139 H   0  0  0  0  0  0  0  0  0  0  0  0  # atno 7183 bound_to 2269
   63.5386  -90.3046   -1.9746 H   0  0  0  0  0  0  0  0  0  0  0  0  # atno 7184 bound_to 2269
   61.7191  -81.0217   -5.4705 H   0  0  0  0  0  0  0  0  0  0  0  0  # atno 7193 bound_to 2255
   52.7279  -69.9029   -8.6146 H   0  0  0  0  0  0  0  0  0  0  0  0  # atno 8180 bound_to 4471
   50.7771  -66.9056   -8.6598 H   0  0  0  0  0  0  0  0  0  0  0  0  # atno 8184 bound_to 4473
   64.0968  -73.3587  -11.3168 H   0  0  0  0  0  0  0  0  0  0  0  0  # atno 8203 bound_to 4505
   64.0461  -69.6066  -11.0416 H   0  0  0  0  0  0  0  0  0  0  0  0  # atno 8212 bound_to 4507
   62.9371  -72.5349   -8.3867 H   0  0  0  0  0  0  0  0  0  0  0  0  # atno 8221 bound_to 4509
   61.1727  -73.9716   -3.1062 LP  0  0  0  0  0  0  0  0  0  0  0  0  # atno 9612 bound_to 1703
   60.2845  -72.7624   -3.7509 LP  0  0  0  0  0  0  0  0  0  0  0  0  # atno 9613 bound_to 1703
   61.9055  -67.9260   -5.6534 LP  0  0  0  0  0  0  0  0  0  0  0  0  # atno 9616 bound_to 1881
   62.9148  -66.9203   -4.8555 LP  0  0  0  0  0  0  0  0  0  0  0  0  # atno 9617 bound_to 1881
   61.7886  -79.4817   -5.9916 LP  0  0  0  0  0  0  0  0  0  0  0  0  # atno 9661 bound_to 2255
   60.3471  -80.1628   -5.6382 LP  0  0  0  0  0  0  0  0  0  0  0  0  # atno 9662 bound_to 2255
   69.4484  -81.5059  -12.9010 LP  0  0  0  0  0  0  0  0  0  0  0  0  # atno 9687 bound_to 4361
   70.0362  -81.1179  -11.4277 LP  0  0  0  0  0  0  0  0  0  0  0  0  # atno 9688 bound_to 4361
   52.3653  -69.3402   -7.1313 LP  0  0  0  0  0  0  0  0  0  0  0  0  # atno 9695 bound_to 4471
   53.8029  -70.0652   -7.4038 LP  0  0  0  0  0  0  0  0  0  0  0  0  # atno 9696 bound_to 4471
   50.9552  -68.0720   -7.5392 LP  0  0  0  0  0  0  0  0  0  0  0  0  # atno 9697 bound_to 4473
   51.4308  -68.3356   -9.0790 LP  0  0  0  0  0  0  0  0  0  0  0  0  # atno 9698 bound_to 4473
   65.3142  -72.3970  -11.8079 LP  0  0  0  0  0  0  0  0  0  0  0  0  # atno 9706 bound_to 4505
   63.7650  -71.9721  -12.1011 LP  0  0  0  0  0  0  0  0  0  0  0  0  # atno 9707 bound_to 4505
   62.7013  -69.0240  -10.3345 LP  0  0  0  0  0  0  0  0  0  0  0  0  # atno 9708 bound_to 4507
   62.5907  -69.9025  -11.7065 LP  0  0  0  0  0  0  0  0  0  0  0  0  # atno 9709 bound_to 4507
   62.2957  -71.7497   -7.1139 LP  0  0  0  0  0  0  0  0  0  0  0  0  # atno 9710 bound_to 4509
   63.8905  -71.6176   -7.4392 LP  0  0  0  0  0  0  0  0  0  0  0  0  # atno 9711 bound_to 4509

$$$$
