C12H12ClN5O4S|Chlorsulfuron|mol|1|dock17
  -GOLD-   2292221533D 1   1.00000     0.00000
 
 35 36  0  0  0  0  0  0  0  0  1 V2000
   67.4437  -73.9969  -13.7616 C   0  0  0  0  0  0  0  0  0  0  0  0
   66.5044  -74.9308  -14.4806 C   0  0  0  0  0  0  0  0  0  0  0  0
   65.3663  -75.2876  -13.9120 N   0  0  0  0  0  0  0  0  0  0  0  0
   64.5354  -76.1117  -14.5442 C   0  0  0  0  0  0  0  0  0  0  0  0
   64.8513  -76.5755  -15.7477 N   0  0  0  0  0  0  0  0  0  0  0  0
   65.9952  -76.2148  -16.3154 C   0  0  0  0  0  0  0  0  0  0  0  0
   66.8185  -75.3869  -15.6809 N   0  0  0  0  0  0  0  0  0  0  0  0
   66.3206  -76.6858  -17.5414 O   0  0  0  0  0  0  0  0  0  0  0  0
   66.5046  -75.5477  -18.3857 C   0  0  0  0  0  0  0  0  0  0  0  0
   63.3424  -76.4860  -13.9477 N   0  0  0  0  0  0  0  0  0  0  0  0
   62.1716  -76.0406  -14.4449 C   0  0  0  0  0  0  0  0  0  0  0  0
   62.1624  -75.3104  -15.4167 O   0  0  0  0  0  0  0  0  0  0  0  0
   61.0109  -76.4047  -13.8645 N   0  0  0  0  0  0  0  0  0  0  0  0
   59.5814  -75.7588  -14.3953 S   0  0  0  0  0  0  0  0  0  0  0  0
   58.5598  -76.5843  -13.8531 O   0  0  0  0  0  0  0  0  0  0  0  0
   59.6955  -74.3559  -14.2002 O   0  0  0  0  0  0  0  0  0  0  0  0
   59.5122  -75.9953  -16.1400 C   0  0  0  0  0  0  0  0  0  0  0  0
   59.6196  -74.9104  -16.9893 C   0  0  0  0  0  0  0  0  0  0  0  0
   59.5653  -75.0957  -18.3583 C   0  0  0  0  0  0  0  0  0  0  0  0
   59.4031  -76.3660  -18.8784 C   0  0  0  0  0  0  0  0  0  0  0  0
   59.2951  -77.4520  -18.0299 C   0  0  0  0  0  0  0  0  0  0  0  0
   59.3559  -77.2680  -16.6602 C   0  0  0  0  0  0  0  0  0  0  0  0
   59.2209  -78.6313  -15.5940 Cl  0  0  0  0  0  0  0  0  0  0  0  0
   68.1390  -74.5769  -13.1549 H   0  0  0  0  0  0  0  0  0  0  0  0
   68.0009  -73.4094  -14.4913 H   0  0  0  0  0  0  0  0  0  0  0  0
   66.8704  -73.3290  -13.1187 H   0  0  0  0  0  0  0  0  0  0  0  0
   66.7697  -75.8791  -19.3897 H   0  0  0  0  0  0  0  0  0  0  0  0
   65.5802  -74.9716  -18.4254 H   0  0  0  0  0  0  0  0  0  0  0  0
   67.3043  -74.9242  -17.9859 H   0  0  0  0  0  0  0  0  0  0  0  0
   63.3498  -77.0686  -13.1721 H   0  0  0  0  0  0  0  0  0  0  0  0
   61.0129  -77.0450  -13.1360 H   0  0  0  0  0  0  0  0  0  0  0  0
   59.7457  -73.9175  -16.5834 H   0  0  0  0  0  0  0  0  0  0  0  0
   59.6493  -74.2476  -19.0216 H   0  0  0  0  0  0  0  0  0  0  0  0
   59.3604  -76.5102  -19.9479 H   0  0  0  0  0  0  0  0  0  0  0  0
   59.1675  -78.4444  -18.4363 H   0  0  0  0  0  0  0  0  0  0  0  0
  1  2  1  0  0  0  0
  2  3  2  0  0  0  0
  3  4  1  0  0  0  0
  4  5  2  0  0  0  0
  5  6  1  0  0  0  0
  6  7  2  0  0  0  0
  2  7  1  0  0  0  0
  6  8  1  0  0  0  0
  8  9  1  0  0  0  0
  4 10  1  0  0  0  0
 10 11  1  0  0  0  0
 11 12  2  0  0  0  0
 11 13  1  0  0  0  0
 13 14  1  0  0  0  0
 14 15  2  0  0  0  0
 14 16  2  0  0  0  0
 14 17  1  0  0  0  0
 17 18  2  0  0  0  0
 18 19  1  0  0  0  0
 19 20  2  0  0  0  0
 20 21  1  0  0  0  0
 21 22  2  0  0  0  0
 17 22  1  0  0  0  0
 22 23  1  0  0  0  0
  1 24  1  0  0  0  0
  1 25  1  0  0  0  0
  1 26  1  0  0  0  0
  9 27  1  0  0  0  0
  9 28  1  0  0  0  0
  9 29  1  0  0  0  0
 10 30  1  0  0  0  0
 13 31  1  0  0  0  0
 18 32  1  0  0  0  0
 19 33  1  0  0  0  0
 20 34  1  0  0  0  0
 21 35  1  0  0  0  0
M  END
> <Gold.Version>
2021.2.0

> <Gold.Id.Protein>
5K6Q|5K6Q_protein|mol2

> <Gold.PLP.Fitness>
28.8344

> <Gold.PLP.PLP>
-21.0247

> <Gold.PLP.part.hbond>
-4.6092

> <Gold.PLP.part.metal>
0.0000

> <Gold.PLP.part.buried>
-5.3600

> <Gold.PLP.part.nonpolar>
-12.7623

> <Gold.PLP.part.repulsive>
0.4580

> <Gold.PLP.ligand.clash>
0.0000

> <Gold.PLP.ligand.torsion>
2.2127

> <Gold.PLP.Chemscore.Hbond>
2.9858

> <Gold.PLP.Chemscore.CHOScore>
0.0000

> <Gold.PLP.Chemscore.Metal>
0.0000

> <Gold.Chemscore.Hbonds>
donor molecule, donor type, donor heavy atom, donor atom, acceptor molecule, acceptor atom, score
      L1  H    10    30       P1  2230  0.96
      L1  H    13    31       P1  2230  0.20
      P1  H  2203  7120       L1    16  1.00
      P1  H  4717  8548       L1     8  0.83

> <Gold.PLP.Chemscore.Internal.Correction>
3.2778

> <Gold.Protein.RotatedTorsions>
[ 5877 1703 1702 1700 ] final  127.88 input   60.01 | X-H torsion
[ 6057 1881 1880 1877 ] final    3.57 input   60.00 | X-H torsion
[ 7193 2255 2254 2251 ] final   -5.97 input   60.00 | X-H torsion
[ 7182 2269 2268 2267 ] final  -80.43 input   59.99 | X-H torsion
[ 6931 4361 4360 4357 ] final  -70.09 input   60.01 | X-H torsion
[ 8180 4471 4470 4468 ] final  146.02 input   60.00 | X-H torsion
[ 8184 4473 4472 4470 ] final -124.72 input   60.00 | X-H torsion
[ 8203 4505 4504 4503 ] final  153.86 input   60.00 | X-H torsion
[ 8212 4507 4506 4504 ] final   73.78 input   60.00 | X-H torsion
[ 8221 4509 4508 4506 ] final -117.41 input   60.00 | X-H torsion

> <Gold.Protein.ActiveResidues>
 TYR305  THR331  LEU332  MET333  LEU349  GLY350  MET351  HIS352  GLY353  ASN358 
 VAL372  ARG373  PHE374  ASP375  ASP376  ARG377  VAL378  THR379  GLY380  LYS381 
 LEU382  PHE385  ASN404  GLY508  GLY509  TRP574  ILE651  PRO652  SER653  GLY654 
 GLY655  FAD702  HOH839  HOH865  HOH881  HOH913  HOH945  HOH958  HOH960  HOH966 
 HOH968 

> <Gold.Protein.RotatedAtoms>
   60.3641  -74.5114   -3.0697 H   0  0  0  0  0  0  0  0  0  0  0  0  # atno 5877 bound_to 1703
   62.8002  -66.8758   -4.5493 H   0  0  0  0  0  0  0  0  0  0  0  0  # atno 6057 bound_to 1881
   68.5038  -80.9103  -11.6367 H   0  0  0  0  0  0  0  0  0  0  0  0  # atno 6931 bound_to 4361
   61.8244  -90.3335   -2.0304 H   0  0  0  0  0  0  0  0  0  0  0  0  # atno 7182 bound_to 2269
   63.4813  -90.3677   -2.0619 H   0  0  0  0  0  0  0  0  0  0  0  0  # atno 7183 bound_to 2269
   62.6924  -89.5075   -0.8850 H   0  0  0  0  0  0  0  0  0  0  0  0  # atno 7184 bound_to 2269
   62.1896  -80.0260   -5.8432 H   0  0  0  0  0  0  0  0  0  0  0  0  # atno 7193 bound_to 2255
   52.1385  -69.4841   -8.0534 H   0  0  0  0  0  0  0  0  0  0  0  0  # atno 8180 bound_to 4471
   50.9579  -67.1077   -9.0823 H   0  0  0  0  0  0  0  0  0  0  0  0  # atno 8184 bound_to 4473
   63.9289  -73.2960  -11.3578 H   0  0  0  0  0  0  0  0  0  0  0  0  # atno 8203 bound_to 4505
   63.0442  -70.0156  -11.8132 H   0  0  0  0  0  0  0  0  0  0  0  0  # atno 8212 bound_to 4507
   62.1412  -71.9859   -7.3897 H   0  0  0  0  0  0  0  0  0  0  0  0  # atno 8221 bound_to 4509
   61.1340  -73.1250   -3.4348 LP  0  0  0  0  0  0  0  0  0  0  0  0  # atno 9612 bound_to 1703
   59.5322  -73.2714   -3.7167 LP  0  0  0  0  0  0  0  0  0  0  0  0  # atno 9613 bound_to 1703
   61.4208  -67.7064   -4.3131 LP  0  0  0  0  0  0  0  0  0  0  0  0  # atno 9616 bound_to 1881
   62.1845  -67.7792   -5.7547 LP  0  0  0  0  0  0  0  0  0  0  0  0  # atno 9617 bound_to 1881
   60.6282  -79.5681   -5.8609 LP  0  0  0  0  0  0  0  0  0  0  0  0  # atno 9661 bound_to 2255
   61.0337  -81.0793   -5.3935 LP  0  0  0  0  0  0  0  0  0  0  0  0  # atno 9662 bound_to 2255
   69.3239  -81.4887  -12.9177 LP  0  0  0  0  0  0  0  0  0  0  0  0  # atno 9687 bound_to 4361
   70.1074  -81.1628  -11.5225 LP  0  0  0  0  0  0  0  0  0  0  0  0  # atno 9688 bound_to 4361
   53.1824  -69.6243   -6.8129 LP  0  0  0  0  0  0  0  0  0  0  0  0  # atno 9695 bound_to 4471
   53.5795  -70.2029   -8.2874 LP  0  0  0  0  0  0  0  0  0  0  0  0  # atno 9696 bound_to 4471
   50.7730  -67.6003   -7.5424 LP  0  0  0  0  0  0  0  0  0  0  0  0  # atno 9697 bound_to 4473
   51.4308  -68.6036   -8.6502 LP  0  0  0  0  0  0  0  0  0  0  0  0  # atno 9698 bound_to 4473
   65.3336  -72.5577  -11.7180 LP  0  0  0  0  0  0  0  0  0  0  0  0  # atno 9706 bound_to 4505
   63.9146  -71.8745  -12.1497 LP  0  0  0  0  0  0  0  0  0  0  0  0  # atno 9707 bound_to 4505
   63.9623  -69.3428  -10.6503 LP  0  0  0  0  0  0  0  0  0  0  0  0  # atno 9708 bound_to 4507
   62.3387  -69.1720  -10.6137 LP  0  0  0  0  0  0  0  0  0  0  0  0  # atno 9709 bound_to 4507
   63.6636  -71.4611   -7.1550 LP  0  0  0  0  0  0  0  0  0  0  0  0  # atno 9710 bound_to 4509
   63.3241  -72.4591   -8.4021 LP  0  0  0  0  0  0  0  0  0  0  0  0  # atno 9711 bound_to 4509

$$$$
