C12H12ClN5O4S|Chlorsulfuron|mol|1|dock41
  -GOLD-   2292221543D 1   1.00000     0.00000
 
 35 36  0  0  0  0  0  0  0  0  1 V2000
   63.9132  -74.8779  -18.0924 C   0  0  0  0  0  0  0  0  0  0  0  0
   64.3261  -75.1530  -16.6693 C   0  0  0  0  0  0  0  0  0  0  0  0
   64.0870  -76.3355  -16.1304 N   0  0  0  0  0  0  0  0  0  0  0  0
   64.4503  -76.5810  -14.8747 C   0  0  0  0  0  0  0  0  0  0  0  0
   65.0537  -75.6360  -14.1632 N   0  0  0  0  0  0  0  0  0  0  0  0
   65.2921  -74.4497  -14.7080 C   0  0  0  0  0  0  0  0  0  0  0  0
   64.9315  -74.2125  -15.9648 N   0  0  0  0  0  0  0  0  0  0  0  0
   65.9062  -73.4842  -13.9859 O   0  0  0  0  0  0  0  0  0  0  0  0
   67.1842  -74.0004  -13.6086 C   0  0  0  0  0  0  0  0  0  0  0  0
   64.1990  -77.8207  -14.3097 N   0  0  0  0  0  0  0  0  0  0  0  0
   64.5133  -78.9446  -14.9839 C   0  0  0  0  0  0  0  0  0  0  0  0
   65.0170  -78.8705  -16.0878 O   0  0  0  0  0  0  0  0  0  0  0  0
   64.2688  -80.1507  -14.4343 N   0  0  0  0  0  0  0  0  0  0  0  0
   64.5371  -81.5298  -15.3110 S   0  0  0  0  0  0  0  0  0  0  0  0
   65.7240  -81.2900  -16.0544 O   0  0  0  0  0  0  0  0  0  0  0  0
   64.3366  -82.6074  -14.4065 O   0  0  0  0  0  0  0  0  0  0  0  0
   63.2442  -81.6573  -16.5013 C   0  0  0  0  0  0  0  0  0  0  0  0
   63.5486  -81.7304  -17.8472 C   0  0  0  0  0  0  0  0  0  0  0  0
   62.5343  -81.8303  -18.7813 C   0  0  0  0  0  0  0  0  0  0  0  0
   61.2151  -81.8566  -18.3696 C   0  0  0  0  0  0  0  0  0  0  0  0
   60.9092  -81.7831  -17.0236 C   0  0  0  0  0  0  0  0  0  0  0  0
   61.9240  -81.6897  -16.0881 C   0  0  0  0  0  0  0  0  0  0  0  0
   61.5406  -81.5978  -14.3974 Cl  0  0  0  0  0  0  0  0  0  0  0  0
   62.9000  -74.4766  -18.1057 H   0  0  0  0  0  0  0  0  0  0  0  0
   64.5968  -74.1536  -18.5355 H   0  0  0  0  0  0  0  0  0  0  0  0
   63.9444  -75.8047  -18.6653 H   0  0  0  0  0  0  0  0  0  0  0  0
   67.7189  -73.2535  -13.0218 H   0  0  0  0  0  0  0  0  0  0  0  0
   67.0499  -74.9029  -13.0124 H   0  0  0  0  0  0  0  0  0  0  0  0
   67.7586  -74.2385  -14.5039 H   0  0  0  0  0  0  0  0  0  0  0  0
   63.7970  -77.8798  -13.4289 H   0  0  0  0  0  0  0  0  0  0  0  0
   63.9358  -80.2109  -13.5253 H   0  0  0  0  0  0  0  0  0  0  0  0
   64.5793  -81.7092  -18.1695 H   0  0  0  0  0  0  0  0  0  0  0  0
   62.7727  -81.8874  -19.8331 H   0  0  0  0  0  0  0  0  0  0  0  0
   60.4231  -81.9344  -19.0999 H   0  0  0  0  0  0  0  0  0  0  0  0
   59.8784  -81.8028  -16.7021 H   0  0  0  0  0  0  0  0  0  0  0  0
  1  2  1  0  0  0  0
  2  3  2  0  0  0  0
  3  4  1  0  0  0  0
  4  5  2  0  0  0  0
  5  6  1  0  0  0  0
  6  7  2  0  0  0  0
  2  7  1  0  0  0  0
  6  8  1  0  0  0  0
  8  9  1  0  0  0  0
  4 10  1  0  0  0  0
 10 11  1  0  0  0  0
 11 12  2  0  0  0  0
 11 13  1  0  0  0  0
 13 14  1  0  0  0  0
 14 15  2  0  0  0  0
 14 16  2  0  0  0  0
 14 17  1  0  0  0  0
 17 18  2  0  0  0  0
 18 19  1  0  0  0  0
 19 20  2  0  0  0  0
 20 21  1  0  0  0  0
 21 22  2  0  0  0  0
 17 22  1  0  0  0  0
 22 23  1  0  0  0  0
  1 24  1  0  0  0  0
  1 25  1  0  0  0  0
  1 26  1  0  0  0  0
  9 27  1  0  0  0  0
  9 28  1  0  0  0  0
  9 29  1  0  0  0  0
 10 30  1  0  0  0  0
 13 31  1  0  0  0  0
 18 32  1  0  0  0  0
 19 33  1  0  0  0  0
 20 34  1  0  0  0  0
 21 35  1  0  0  0  0
M  END
> <Gold.Version>
2021.2.0

> <Gold.Id.Protein>
5K6Q|5K6Q_protein|mol2

> <Gold.PLP.Fitness>
23.8367

> <Gold.PLP.PLP>
-17.4010

> <Gold.PLP.part.hbond>
-6.3884

> <Gold.PLP.part.metal>
0.0000

> <Gold.PLP.part.buried>
-3.0305

> <Gold.PLP.part.nonpolar>
-11.3888

> <Gold.PLP.part.repulsive>
1.8723

> <Gold.PLP.ligand.clash>
0.0000

> <Gold.PLP.ligand.torsion>
1.9673

> <Gold.PLP.Chemscore.Hbond>
2.3666

> <Gold.PLP.Chemscore.CHOScore>
0.0000

> <Gold.PLP.Chemscore.Metal>
0.0000

> <Gold.Chemscore.Hbonds>
donor molecule, donor type, donor heavy atom, donor atom, acceptor molecule, acceptor atom, score
      L1  H    10    30       P1  2231  0.26
      L1  H    13    31       P1  2231  1.00
      P1  H  4723  8580       L1    15  0.60
      P1  H  4725  8552       L1    16  0.50

> <Gold.PLP.Chemscore.Internal.Correction>
3.2706

> <Gold.Protein.RotatedTorsions>
[ 5877 1703 1702 1700 ] final  -24.92 input   60.01 | X-H torsion
[ 6057 1881 1880 1877 ] final  177.56 input   60.00 | X-H torsion
[ 7193 2255 2254 2251 ] final  176.40 input   60.00 | X-H torsion
[ 7182 2269 2268 2267 ] final   47.74 input   59.99 | X-H torsion
[ 6931 4361 4360 4357 ] final  114.97 input   60.01 | X-H torsion
[ 8180 4471 4470 4468 ] final  -70.93 input   60.00 | X-H torsion
[ 8184 4473 4472 4470 ] final  -13.61 input   60.00 | X-H torsion
[ 8203 4505 4504 4503 ] final   33.29 input   60.00 | X-H torsion
[ 8212 4507 4506 4504 ] final  -10.24 input   60.00 | X-H torsion
[ 8221 4509 4508 4506 ] final -161.93 input   60.00 | X-H torsion

> <Gold.Protein.ActiveResidues>
 TYR305  THR331  LEU332  MET333  LEU349  GLY350  MET351  HIS352  GLY353  ASN358 
 VAL372  ARG373  PHE374  ASP375  ASP376  ARG377  VAL378  THR379  GLY380  LYS381 
 LEU382  PHE385  ASN404  GLY508  GLY509  TRP574  ILE651  PRO652  SER653  GLY654 
 GLY655  FAD702  HOH839  HOH865  HOH881  HOH913  HOH945  HOH958  HOH960  HOH966 
 HOH968 

> <Gold.Protein.RotatedAtoms>
   60.7444  -72.8219   -3.6290 H   0  0  0  0  0  0  0  0  0  0  0  0  # atno 5877 bound_to 1703
   61.5244  -68.0328   -5.2777 H   0  0  0  0  0  0  0  0  0  0  0  0  # atno 6057 bound_to 1881
   70.0726  -81.4813  -12.4808 H   0  0  0  0  0  0  0  0  0  0  0  0  # atno 6931 bound_to 4361
   63.5442  -90.2969   -1.9641 H   0  0  0  0  0  0  0  0  0  0  0  0  # atno 7182 bound_to 2269
   62.5561  -89.5106   -0.8904 H   0  0  0  0  0  0  0  0  0  0  0  0  # atno 7183 bound_to 2269
   61.8976  -90.4015   -2.1233 H   0  0  0  0  0  0  0  0  0  0  0  0  # atno 7184 bound_to 2269
   60.3737  -80.3851   -5.5641 H   0  0  0  0  0  0  0  0  0  0  0  0  # atno 7193 bound_to 2255
   53.7632  -70.1950   -7.9600 H   0  0  0  0  0  0  0  0  0  0  0  0  # atno 8180 bound_to 4471
   51.4419  -68.5430   -8.7824 H   0  0  0  0  0  0  0  0  0  0  0  0  # atno 8184 bound_to 4473
   65.3268  -72.5486  -11.7206 H   0  0  0  0  0  0  0  0  0  0  0  0  # atno 8203 bound_to 4505
   64.0332  -69.6624  -11.1294 H   0  0  0  0  0  0  0  0  0  0  0  0  # atno 8212 bound_to 4507
   62.5358  -71.5795   -6.9628 H   0  0  0  0  0  0  0  0  0  0  0  0  # atno 8221 bound_to 4509
   59.4209  -73.7656   -3.5531 LP  0  0  0  0  0  0  0  0  0  0  0  0  # atno 9612 bound_to 1703
   60.8622  -74.3323   -3.0351 LP  0  0  0  0  0  0  0  0  0  0  0  0  # atno 9613 bound_to 1703
   62.8852  -67.1437   -5.3546 LP  0  0  0  0  0  0  0  0  0  0  0  0  # atno 9616 bound_to 1881
   62.0047  -67.1768   -3.9797 LP  0  0  0  0  0  0  0  0  0  0  0  0  # atno 9617 bound_to 1881
   61.9154  -80.9049   -5.5291 LP  0  0  0  0  0  0  0  0  0  0  0  0  # atno 9661 bound_to 2255
   61.5752  -79.3807   -6.0065 LP  0  0  0  0  0  0  0  0  0  0  0  0  # atno 9662 bound_to 2255
   69.3780  -80.8973  -11.1300 LP  0  0  0  0  0  0  0  0  0  0  0  0  # atno 9687 bound_to 4361
   68.4737  -81.1792  -12.4602 LP  0  0  0  0  0  0  0  0  0  0  0  0  # atno 9688 bound_to 4361
   52.2880  -69.6378   -8.3616 LP  0  0  0  0  0  0  0  0  0  0  0  0  # atno 9695 bound_to 4471
   52.8377  -69.4734   -6.8327 LP  0  0  0  0  0  0  0  0  0  0  0  0  # atno 9696 bound_to 4471
   50.8976  -67.0223   -8.9806 LP  0  0  0  0  0  0  0  0  0  0  0  0  # atno 9697 bound_to 4473
   50.8188  -67.7362   -7.5140 LP  0  0  0  0  0  0  0  0  0  0  0  0  # atno 9698 bound_to 4473
   63.9066  -71.8788  -12.1476 LP  0  0  0  0  0  0  0  0  0  0  0  0  # atno 9706 bound_to 4505
   63.9338  -73.3061  -11.3547 LP  0  0  0  0  0  0  0  0  0  0  0  0  # atno 9707 bound_to 4505
   62.7983  -69.0079  -10.2960 LP  0  0  0  0  0  0  0  0  0  0  0  0  # atno 9708 bound_to 4507
   62.5068  -69.8626  -11.6565 LP  0  0  0  0  0  0  0  0  0  0  0  0  # atno 9709 bound_to 4507
   63.9661  -71.7977   -7.7076 LP  0  0  0  0  0  0  0  0  0  0  0  0  # atno 9710 bound_to 4509
   62.6242  -72.5318   -8.2794 LP  0  0  0  0  0  0  0  0  0  0  0  0  # atno 9711 bound_to 4509

$$$$
