C12H12ClN5O4S|Chlorsulfuron|mol|1|dock18
  -GOLD-   2292221533D 1   1.00000     0.00000
 
 35 36  0  0  0  0  0  0  0  0  1 V2000
   64.0108  -75.0758  -18.1375 C   0  0  0  0  0  0  0  0  0  0  0  0
   64.3968  -75.3206  -16.7014 C   0  0  0  0  0  0  0  0  0  0  0  0
   64.1898  -76.5061  -16.1562 N   0  0  0  0  0  0  0  0  0  0  0  0
   64.5295  -76.7250  -14.8889 C   0  0  0  0  0  0  0  0  0  0  0  0
   65.0770  -75.7503  -14.1724 N   0  0  0  0  0  0  0  0  0  0  0  0
   65.2833  -74.5610  -14.7236 C   0  0  0  0  0  0  0  0  0  0  0  0
   64.9467  -74.3503  -15.9918 N   0  0  0  0  0  0  0  0  0  0  0  0
   65.8405  -73.5651  -13.9965 O   0  0  0  0  0  0  0  0  0  0  0  0
   67.1540  -73.9999  -13.6389 C   0  0  0  0  0  0  0  0  0  0  0  0
   64.3120  -77.9680  -14.3173 N   0  0  0  0  0  0  0  0  0  0  0  0
   64.5528  -79.0878  -15.0275 C   0  0  0  0  0  0  0  0  0  0  0  0
   64.9609  -79.0071  -16.1698 O   0  0  0  0  0  0  0  0  0  0  0  0
   64.3411  -80.2972  -14.4715 N   0  0  0  0  0  0  0  0  0  0  0  0
   64.5156  -81.6693  -15.3821 S   0  0  0  0  0  0  0  0  0  0  0  0
   65.6620  -81.4514  -16.1929 O   0  0  0  0  0  0  0  0  0  0  0  0
   64.3387  -82.7549  -14.4824 O   0  0  0  0  0  0  0  0  0  0  0  0
   63.1501  -81.7412  -16.4933 C   0  0  0  0  0  0  0  0  0  0  0  0
   63.3704  -81.8605  -17.8523 C   0  0  0  0  0  0  0  0  0  0  0  0
   62.2991  -81.9168  -18.7244 C   0  0  0  0  0  0  0  0  0  0  0  0
   61.0070  -81.8534  -18.2376 C   0  0  0  0  0  0  0  0  0  0  0  0
   60.7852  -81.7336  -16.8784 C   0  0  0  0  0  0  0  0  0  0  0  0
   61.8567  -81.6837  -16.0048 C   0  0  0  0  0  0  0  0  0  0  0  0
   61.5789  -81.5338  -14.2978 Cl  0  0  0  0  0  0  0  0  0  0  0  0
   62.9834  -74.7144  -18.1811 H   0  0  0  0  0  0  0  0  0  0  0  0
   64.6770  -74.3297  -18.5707 H   0  0  0  0  0  0  0  0  0  0  0  0
   64.0928  -76.0062  -18.6994 H   0  0  0  0  0  0  0  0  0  0  0  0
   67.6448  -73.2260  -13.0488 H   0  0  0  0  0  0  0  0  0  0  0  0
   67.0862  -74.9161  -13.0523 H   0  0  0  0  0  0  0  0  0  0  0  0
   67.7327  -74.1894  -14.5429 H   0  0  0  0  0  0  0  0  0  0  0  0
   63.9863  -78.0324  -13.4058 H   0  0  0  0  0  0  0  0  0  0  0  0
   64.0867  -80.3638  -13.5378 H   0  0  0  0  0  0  0  0  0  0  0  0
   64.3799  -81.9094  -18.2333 H   0  0  0  0  0  0  0  0  0  0  0  0
   62.4718  -82.0101  -19.7864 H   0  0  0  0  0  0  0  0  0  0  0  0
   60.1705  -81.8972  -18.9194 H   0  0  0  0  0  0  0  0  0  0  0  0
   59.7756  -81.6832  -16.4983 H   0  0  0  0  0  0  0  0  0  0  0  0
  1  2  1  0  0  0  0
  2  3  2  0  0  0  0
  3  4  1  0  0  0  0
  4  5  2  0  0  0  0
  5  6  1  0  0  0  0
  6  7  2  0  0  0  0
  2  7  1  0  0  0  0
  6  8  1  0  0  0  0
  8  9  1  0  0  0  0
  4 10  1  0  0  0  0
 10 11  1  0  0  0  0
 11 12  2  0  0  0  0
 11 13  1  0  0  0  0
 13 14  1  0  0  0  0
 14 15  2  0  0  0  0
 14 16  2  0  0  0  0
 14 17  1  0  0  0  0
 17 18  2  0  0  0  0
 18 19  1  0  0  0  0
 19 20  2  0  0  0  0
 20 21  1  0  0  0  0
 21 22  2  0  0  0  0
 17 22  1  0  0  0  0
 22 23  1  0  0  0  0
  1 24  1  0  0  0  0
  1 25  1  0  0  0  0
  1 26  1  0  0  0  0
  9 27  1  0  0  0  0
  9 28  1  0  0  0  0
  9 29  1  0  0  0  0
 10 30  1  0  0  0  0
 13 31  1  0  0  0  0
 18 32  1  0  0  0  0
 19 33  1  0  0  0  0
 20 34  1  0  0  0  0
 21 35  1  0  0  0  0
M  END
> <Gold.Version>
2021.2.0

> <Gold.Id.Protein>
5K6Q|5K6Q_protein|mol2

> <Gold.PLP.Fitness>
24.4763

> <Gold.PLP.PLP>
-16.5787

> <Gold.PLP.part.hbond>
-6.1609

> <Gold.PLP.part.metal>
0.0000

> <Gold.PLP.part.buried>
-2.7536

> <Gold.PLP.part.nonpolar>
-10.6325

> <Gold.PLP.part.repulsive>
1.1432

> <Gold.PLP.ligand.clash>
0.0000

> <Gold.PLP.ligand.torsion>
1.8990

> <Gold.PLP.Chemscore.Hbond>
2.8059

> <Gold.PLP.Chemscore.CHOScore>
0.0000

> <Gold.PLP.Chemscore.Metal>
0.0000

> <Gold.Chemscore.Hbonds>
donor molecule, donor type, donor heavy atom, donor atom, acceptor molecule, acceptor atom, score
      L1  H    10    30       P1  2231  0.65
      L1  H    13    31       P1  2231  0.99
      P1  H  4723  8580       L1    15  0.50
      P1  H  4725  8552       L1    16  0.67

> <Gold.PLP.Chemscore.Internal.Correction>
3.2778

> <Gold.Protein.RotatedTorsions>
[ 5877 1703 1702 1700 ] final  -66.75 input   60.01 | X-H torsion
[ 6057 1881 1880 1877 ] final -148.18 input   60.00 | X-H torsion
[ 7193 2255 2254 2251 ] final    4.88 input   60.00 | X-H torsion
[ 7182 2269 2268 2267 ] final  108.90 input   59.99 | X-H torsion
[ 6931 4361 4360 4357 ] final -124.17 input   60.01 | X-H torsion
[ 8180 4471 4470 4468 ] final   28.17 input   60.00 | X-H torsion
[ 8184 4473 4472 4470 ] final    0.63 input   60.00 | X-H torsion
[ 8203 4505 4504 4503 ] final   11.06 input   60.00 | X-H torsion
[ 8212 4507 4506 4504 ] final -172.90 input   60.00 | X-H torsion
[ 8221 4509 4508 4506 ] final  -31.26 input   60.00 | X-H torsion

> <Gold.Protein.ActiveResidues>
 TYR305  THR331  LEU332  MET333  LEU349  GLY350  MET351  HIS352  GLY353  ASN358 
 VAL372  ARG373  PHE374  ASP375  ASP376  ARG377  VAL378  THR379  GLY380  LYS381 
 LEU382  PHE385  ASN404  GLY508  GLY509  TRP574  ILE651  PRO652  SER653  GLY654 
 GLY655  FAD702  HOH839  HOH865  HOH881  HOH913  HOH945  HOH958  HOH960  HOH966 
 HOH968 

> <Gold.Protein.RotatedAtoms>
   60.0912  -72.8130   -3.7699 H   0  0  0  0  0  0  0  0  0  0  0  0  # atno 5877 bound_to 1703
   61.3466  -67.9430   -4.7634 H   0  0  0  0  0  0  0  0  0  0  0  0  # atno 6057 bound_to 1881
   68.4731  -81.1765  -12.4447 H   0  0  0  0  0  0  0  0  0  0  0  0  # atno 6931 bound_to 4361
   63.4227  -89.7287   -1.1828 H   0  0  0  0  0  0  0  0  0  0  0  0  # atno 7182 bound_to 2269
   61.7804  -89.8530   -1.3689 H   0  0  0  0  0  0  0  0  0  0  0  0  # atno 7183 bound_to 2269
   62.7952  -90.6275   -2.4261 H   0  0  0  0  0  0  0  0  0  0  0  0  # atno 7184 bound_to 2269
   62.2172  -80.1925   -5.7902 H   0  0  0  0  0  0  0  0  0  0  0  0  # atno 7193 bound_to 2255
   53.1504  -69.6079   -6.8154 H   0  0  0  0  0  0  0  0  0  0  0  0  # atno 8180 bound_to 4471
   51.4189  -68.6199   -8.5646 H   0  0  0  0  0  0  0  0  0  0  0  0  # atno 8184 bound_to 4473
   65.2514  -72.2412  -11.8940 H   0  0  0  0  0  0  0  0  0  0  0  0  # atno 8203 bound_to 4505
   62.2879  -69.2236  -10.6962 H   0  0  0  0  0  0  0  0  0  0  0  0  # atno 8212 bound_to 4507
   62.7860  -72.5396   -8.3452 H   0  0  0  0  0  0  0  0  0  0  0  0  # atno 8221 bound_to 4509
   59.7002  -74.3166   -3.2858 LP  0  0  0  0  0  0  0  0  0  0  0  0  # atno 9612 bound_to 1703
   61.2409  -73.7902   -3.1605 LP  0  0  0  0  0  0  0  0  0  0  0  0  # atno 9613 bound_to 1703
   62.5974  -67.4761   -5.6939 LP  0  0  0  0  0  0  0  0  0  0  0  0  # atno 9616 bound_to 1881
   62.4716  -66.9349   -4.1583 LP  0  0  0  0  0  0  0  0  0  0  0  0  # atno 9617 bound_to 1881
   60.7662  -79.4653   -5.9072 LP  0  0  0  0  0  0  0  0  0  0  0  0  # atno 9661 bound_to 2255
   60.8679  -81.0143   -5.4006 LP  0  0  0  0  0  0  0  0  0  0  0  0  # atno 9662 bound_to 2255
   70.0704  -81.4835  -12.4963 LP  0  0  0  0  0  0  0  0  0  0  0  0  # atno 9687 bound_to 4361
   69.3919  -80.9000  -11.1304 LP  0  0  0  0  0  0  0  0  0  0  0  0  # atno 9688 bound_to 4361
   53.6019  -70.2056   -8.2600 LP  0  0  0  0  0  0  0  0  0  0  0  0  # atno 9695 bound_to 4471
   52.1409  -69.4969   -8.0870 LP  0  0  0  0  0  0  0  0  0  0  0  0  # atno 9696 bound_to 4471
   50.9910  -67.1608   -9.1442 LP  0  0  0  0  0  0  0  0  0  0  0  0  # atno 9697 bound_to 4473
   50.7486  -67.5203   -7.5698 LP  0  0  0  0  0  0  0  0  0  0  0  0  # atno 9698 bound_to 4473
   63.6369  -72.0960  -12.0371 LP  0  0  0  0  0  0  0  0  0  0  0  0  # atno 9706 bound_to 4505
   64.2794  -73.3985  -11.2906 LP  0  0  0  0  0  0  0  0  0  0  0  0  # atno 9707 bound_to 4505
   63.1535  -70.0251  -11.8171 LP  0  0  0  0  0  0  0  0  0  0  0  0  # atno 9708 bound_to 4507
   63.9092  -69.2871  -10.5717 LP  0  0  0  0  0  0  0  0  0  0  0  0  # atno 9709 bound_to 4507
   62.3980  -71.6638   -7.0297 LP  0  0  0  0  0  0  0  0  0  0  0  0  # atno 9710 bound_to 4509
   63.9403  -71.6988   -7.5651 LP  0  0  0  0  0  0  0  0  0  0  0  0  # atno 9711 bound_to 4509

$$$$
