C12H12ClN5O4S|Chlorsulfuron|mol|1|dock48
  -GOLD-   2292221543D 1   1.00000     0.00000
 
 35 36  0  0  0  0  0  0  0  0  1 V2000
   59.9272  -74.1720  -15.1282 C   0  0  0  0  0  0  0  0  0  0  0  0
   61.1103  -75.0008  -15.5578 C   0  0  0  0  0  0  0  0  0  0  0  0
   61.4525  -76.0712  -14.8628 N   0  0  0  0  0  0  0  0  0  0  0  0
   62.4962  -76.8045  -15.2397 C   0  0  0  0  0  0  0  0  0  0  0  0
   63.1940  -76.4594  -16.3155 N   0  0  0  0  0  0  0  0  0  0  0  0
   62.8472  -75.3837  -17.0108 C   0  0  0  0  0  0  0  0  0  0  0  0
   61.8002  -74.6583  -16.6322 N   0  0  0  0  0  0  0  0  0  0  0  0
   63.5562  -75.0286  -18.1072 O   0  0  0  0  0  0  0  0  0  0  0  0
   62.6757  -74.2735  -18.9418 C   0  0  0  0  0  0  0  0  0  0  0  0
   62.8551  -77.9266  -14.5107 N   0  0  0  0  0  0  0  0  0  0  0  0
   63.4314  -78.9762  -15.1293 C   0  0  0  0  0  0  0  0  0  0  0  0
   63.6363  -78.9384  -16.3269 O   0  0  0  0  0  0  0  0  0  0  0  0
   63.7805  -80.0678  -14.4200 N   0  0  0  0  0  0  0  0  0  0  0  0
   64.3719  -81.4055  -15.1966 S   0  0  0  0  0  0  0  0  0  0  0  0
   65.6383  -81.0226  -15.7151 O   0  0  0  0  0  0  0  0  0  0  0  0
   64.1391  -82.4970  -14.3170 O   0  0  0  0  0  0  0  0  0  0  0  0
   63.3476  -81.6954  -16.6006 C   0  0  0  0  0  0  0  0  0  0  0  0
   63.9125  -81.8088  -17.8567 C   0  0  0  0  0  0  0  0  0  0  0  0
   63.1089  -82.0361  -18.9585 C   0  0  0  0  0  0  0  0  0  0  0  0
   61.7400  -82.1498  -18.8045 C   0  0  0  0  0  0  0  0  0  0  0  0
   61.1736  -82.0362  -17.5487 C   0  0  0  0  0  0  0  0  0  0  0  0
   61.9779  -81.8152  -16.4450 C   0  0  0  0  0  0  0  0  0  0  0  0
   61.2674  -81.6730  -14.8674 Cl  0  0  0  0  0  0  0  0  0  0  0  0
   60.2587  -73.3951  -14.4393 H   0  0  0  0  0  0  0  0  0  0  0  0
   59.4698  -73.7106  -16.0034 H   0  0  0  0  0  0  0  0  0  0  0  0
   59.1973  -74.8110  -14.6311 H   0  0  0  0  0  0  0  0  0  0  0  0
   63.2055  -73.9637  -19.8426 H   0  0  0  0  0  0  0  0  0  0  0  0
   61.8194  -74.8891  -19.2174 H   0  0  0  0  0  0  0  0  0  0  0  0
   62.3304  -73.3918  -18.4019 H   0  0  0  0  0  0  0  0  0  0  0  0
   62.6915  -77.9568  -13.5550 H   0  0  0  0  0  0  0  0  0  0  0  0
   63.6854  -80.0698  -13.4548 H   0  0  0  0  0  0  0  0  0  0  0  0
   64.9820  -81.7193  -17.9778 H   0  0  0  0  0  0  0  0  0  0  0  0
   63.5508  -82.1247  -19.9400 H   0  0  0  0  0  0  0  0  0  0  0  0
   61.1127  -82.3272  -19.6657 H   0  0  0  0  0  0  0  0  0  0  0  0
   60.1040  -82.1243  -17.4285 H   0  0  0  0  0  0  0  0  0  0  0  0
  1  2  1  0  0  0  0
  2  3  2  0  0  0  0
  3  4  1  0  0  0  0
  4  5  2  0  0  0  0
  5  6  1  0  0  0  0
  6  7  2  0  0  0  0
  2  7  1  0  0  0  0
  6  8  1  0  0  0  0
  8  9  1  0  0  0  0
  4 10  1  0  0  0  0
 10 11  1  0  0  0  0
 11 12  2  0  0  0  0
 11 13  1  0  0  0  0
 13 14  1  0  0  0  0
 14 15  2  0  0  0  0
 14 16  2  0  0  0  0
 14 17  1  0  0  0  0
 17 18  2  0  0  0  0
 18 19  1  0  0  0  0
 19 20  2  0  0  0  0
 20 21  1  0  0  0  0
 21 22  2  0  0  0  0
 17 22  1  0  0  0  0
 22 23  1  0  0  0  0
  1 24  1  0  0  0  0
  1 25  1  0  0  0  0
  1 26  1  0  0  0  0
  9 27  1  0  0  0  0
  9 28  1  0  0  0  0
  9 29  1  0  0  0  0
 10 30  1  0  0  0  0
 13 31  1  0  0  0  0
 18 32  1  0  0  0  0
 19 33  1  0  0  0  0
 20 34  1  0  0  0  0
 21 35  1  0  0  0  0
M  END
> <Gold.Version>
2021.2.0

> <Gold.Id.Protein>
5K6Q|5K6Q_protein|mol2

> <Gold.PLP.Fitness>
19.7472

> <Gold.PLP.PLP>
-12.2881

> <Gold.PLP.part.hbond>
-4.7396

> <Gold.PLP.part.metal>
0.0000

> <Gold.PLP.part.buried>
-2.3687

> <Gold.PLP.part.nonpolar>
-8.4228

> <Gold.PLP.part.repulsive>
2.0128

> <Gold.PLP.ligand.clash>
0.0090

> <Gold.PLP.ligand.torsion>
2.1851

> <Gold.PLP.Chemscore.Hbond>
2.8559

> <Gold.PLP.Chemscore.CHOScore>
0.0000

> <Gold.PLP.Chemscore.Metal>
0.0000

> <Gold.Chemscore.Hbonds>
donor molecule, donor type, donor heavy atom, donor atom, acceptor molecule, acceptor atom, score
      L1  H    10    30       P1  2230  0.76
      L1  H    13    31       P1  2231  1.00
      P1  H  4723  8580       L1    15  0.95
      P1  H  4725  8552       L1    16  0.15

> <Gold.PLP.Chemscore.Internal.Correction>
3.2706

> <Gold.Protein.RotatedTorsions>
[ 5877 1703 1702 1700 ] final -148.41 input   60.01 | X-H torsion
[ 6057 1881 1880 1877 ] final   99.52 input   60.00 | X-H torsion
[ 7193 2255 2254 2251 ] final   16.85 input   60.00 | X-H torsion
[ 7182 2269 2268 2267 ] final  -97.82 input   59.99 | X-H torsion
[ 6931 4361 4360 4357 ] final  -88.55 input   60.01 | X-H torsion
[ 8180 4471 4470 4468 ] final  -33.73 input   60.00 | X-H torsion
[ 8184 4473 4472 4470 ] final   52.16 input   60.00 | X-H torsion
[ 8203 4505 4504 4503 ] final  104.97 input   60.00 | X-H torsion
[ 8212 4507 4506 4504 ] final  -12.26 input   60.00 | X-H torsion
[ 8221 4509 4508 4506 ] final   48.36 input   60.00 | X-H torsion

> <Gold.Protein.ActiveResidues>
 TYR305  THR331  LEU332  MET333  LEU349  GLY350  MET351  HIS352  GLY353  ASN358 
 VAL372  ARG373  PHE374  ASP375  ASP376  ARG377  VAL378  THR379  GLY380  LYS381 
 LEU382  PHE385  ASN404  GLY508  GLY509  TRP574  ILE651  PRO652  SER653  GLY654 
 GLY655  FAD702  HOH839  HOH865  HOH881  HOH913  HOH945  HOH958  HOH960  HOH966 
 HOH968 

> <Gold.Protein.RotatedAtoms>
   59.4327  -73.8166   -3.5288 H   0  0  0  0  0  0  0  0  0  0  0  0  # atno 5877 bound_to 1703
   62.5044  -67.5552   -5.7265 H   0  0  0  0  0  0  0  0  0  0  0  0  # atno 6057 bound_to 1881
   68.4030  -80.9838  -11.9100 H   0  0  0  0  0  0  0  0  0  0  0  0  # atno 6931 bound_to 4361
   61.7268  -90.1730   -1.8102 H   0  0  0  0  0  0  0  0  0  0  0  0  # atno 7182 bound_to 2269
   63.2942  -90.4967   -2.2412 H   0  0  0  0  0  0  0  0  0  0  0  0  # atno 7183 bound_to 2269
   62.9772  -89.5391   -0.9259 H   0  0  0  0  0  0  0  0  0  0  0  0  # atno 7184 bound_to 2269
   62.2091  -80.3774   -5.7280 H   0  0  0  0  0  0  0  0  0  0  0  0  # atno 7193 bound_to 2255
   53.7914  -70.0512   -7.3809 H   0  0  0  0  0  0  0  0  0  0  0  0  # atno 8180 bound_to 4471
   51.1726  -68.4595   -7.8057 H   0  0  0  0  0  0  0  0  0  0  0  0  # atno 8184 bound_to 4473
   64.7002  -73.3449  -11.3021 H   0  0  0  0  0  0  0  0  0  0  0  0  # atno 8203 bound_to 4505
   64.0385  -69.6450  -11.1019 H   0  0  0  0  0  0  0  0  0  0  0  0  # atno 8212 bound_to 4507
   63.8645  -72.0903   -8.0766 H   0  0  0  0  0  0  0  0  0  0  0  0  # atno 8221 bound_to 4509
   60.9079  -74.2976   -3.0386 LP  0  0  0  0  0  0  0  0  0  0  0  0  # atno 9612 bound_to 1703
   60.6963  -72.7985   -3.6505 LP  0  0  0  0  0  0  0  0  0  0  0  0  # atno 9613 bound_to 1703
   62.5659  -66.9033   -4.2367 LP  0  0  0  0  0  0  0  0  0  0  0  0  # atno 9616 bound_to 1881
   61.3373  -67.8982   -4.6456 LP  0  0  0  0  0  0  0  0  0  0  0  0  # atno 9617 bound_to 1881
   60.9398  -79.3834   -5.9497 LP  0  0  0  0  0  0  0  0  0  0  0  0  # atno 9661 bound_to 2255
   60.7024  -80.9100   -5.4207 LP  0  0  0  0  0  0  0  0  0  0  0  0  # atno 9662 bound_to 2255
   69.6174  -81.5201  -12.8513 LP  0  0  0  0  0  0  0  0  0  0  0  0  # atno 9687 bound_to 4361
   69.9154  -81.0574  -11.3138 LP  0  0  0  0  0  0  0  0  0  0  0  0  # atno 9688 bound_to 4361
   52.7504  -69.9184   -8.6247 LP  0  0  0  0  0  0  0  0  0  0  0  0  # atno 9695 bound_to 4471
   52.3468  -69.3376   -7.1528 LP  0  0  0  0  0  0  0  0  0  0  0  0  # atno 9696 bound_to 4471
   51.3176  -67.8908   -9.3234 LP  0  0  0  0  0  0  0  0  0  0  0  0  # atno 9697 bound_to 4473
   50.6700  -66.9518   -8.1549 LP  0  0  0  0  0  0  0  0  0  0  0  0  # atno 9698 bound_to 4473
   65.0061  -71.9437  -12.0709 LP  0  0  0  0  0  0  0  0  0  0  0  0  # atno 9706 bound_to 4505
   63.4654  -72.4393  -11.8530 LP  0  0  0  0  0  0  0  0  0  0  0  0  # atno 9707 bound_to 4505
   62.7673  -69.0123  -10.3071 LP  0  0  0  0  0  0  0  0  0  0  0  0  # atno 9708 bound_to 4507
   62.5324  -69.8756  -11.6731 LP  0  0  0  0  0  0  0  0  0  0  0  0  # atno 9709 bound_to 4507
   62.2688  -72.3952   -7.9815 LP  0  0  0  0  0  0  0  0  0  0  0  0  # atno 9710 bound_to 4509
   62.9834  -71.4199   -6.8839 LP  0  0  0  0  0  0  0  0  0  0  0  0  # atno 9711 bound_to 4509

$$$$
