C12H12ClN5O4S|Chlorsulfuron|mol|1|dock43
  -GOLD-   2292221543D 1   1.00000     0.00000
 
 35 36  0  0  0  0  0  0  0  0  1 V2000
   69.7944  -74.8943  -13.8205 C   0  0  0  0  0  0  0  0  0  0  0  0
   68.4586  -74.9782  -14.5132 C   0  0  0  0  0  0  0  0  0  0  0  0
   68.3237  -75.7218  -15.5971 N   0  0  0  0  0  0  0  0  0  0  0  0
   67.1459  -75.7977  -16.2104 C   0  0  0  0  0  0  0  0  0  0  0  0
   66.1057  -75.1252  -15.7320 N   0  0  0  0  0  0  0  0  0  0  0  0
   66.2452  -74.3796  -14.6432 C   0  0  0  0  0  0  0  0  0  0  0  0
   67.4231  -74.3121  -14.0319 N   0  0  0  0  0  0  0  0  0  0  0  0
   65.1876  -73.6924  -14.1530 O   0  0  0  0  0  0  0  0  0  0  0  0
   64.1541  -74.6474  -13.9039 C   0  0  0  0  0  0  0  0  0  0  0  0
   67.0048  -76.5770  -17.3471 N   0  0  0  0  0  0  0  0  0  0  0  0
   66.4300  -76.0603  -18.4512 C   0  0  0  0  0  0  0  0  0  0  0  0
   66.0354  -74.9105  -18.4497 O   0  0  0  0  0  0  0  0  0  0  0  0
   66.2926  -76.8184  -19.5571 N   0  0  0  0  0  0  0  0  0  0  0  0
   65.4750  -76.2270  -20.8702 S   0  0  0  0  0  0  0  0  0  0  0  0
   65.7855  -77.1030  -21.9450 O   0  0  0  0  0  0  0  0  0  0  0  0
   64.1661  -75.9258  -20.4063 O   0  0  0  0  0  0  0  0  0  0  0  0
   66.2024  -74.6779  -21.2897 C   0  0  0  0  0  0  0  0  0  0  0  0
   67.5297  -74.4344  -20.9920 C   0  0  0  0  0  0  0  0  0  0  0  0
   68.1006  -73.2190  -21.3210 C   0  0  0  0  0  0  0  0  0  0  0  0
   67.3440  -72.2465  -21.9474 C   0  0  0  0  0  0  0  0  0  0  0  0
   66.0161  -72.4886  -22.2453 C   0  0  0  0  0  0  0  0  0  0  0  0
   65.4461  -73.7070  -21.9222 C   0  0  0  0  0  0  0  0  0  0  0  0
   63.7786  -74.0121  -22.2965 Cl  0  0  0  0  0  0  0  0  0  0  0  0
   70.3690  -74.0676  -14.2382 H   0  0  0  0  0  0  0  0  0  0  0  0
   69.6410  -74.7279  -12.7543 H   0  0  0  0  0  0  0  0  0  0  0  0
   70.3394  -75.8266  -13.9682 H   0  0  0  0  0  0  0  0  0  0  0  0
   63.2767  -74.1377  -13.5058 H   0  0  0  0  0  0  0  0  0  0  0  0
   63.8913  -75.1496  -14.8350 H   0  0  0  0  0  0  0  0  0  0  0  0
   64.5060  -75.3834  -13.1810 H   0  0  0  0  0  0  0  0  0  0  0  0
   67.3196  -77.4945  -17.3483 H   0  0  0  0  0  0  0  0  0  0  0  0
   66.6728  -77.7104  -19.5839 H   0  0  0  0  0  0  0  0  0  0  0  0
   68.1212  -75.1937  -20.5019 H   0  0  0  0  0  0  0  0  0  0  0  0
   69.1380  -73.0291  -21.0882 H   0  0  0  0  0  0  0  0  0  0  0  0
   67.7904  -71.2970  -22.2040 H   0  0  0  0  0  0  0  0  0  0  0  0
   65.4248  -71.7284  -22.7340 H   0  0  0  0  0  0  0  0  0  0  0  0
  1  2  1  0  0  0  0
  2  3  2  0  0  0  0
  3  4  1  0  0  0  0
  4  5  2  0  0  0  0
  5  6  1  0  0  0  0
  6  7  2  0  0  0  0
  2  7  1  0  0  0  0
  6  8  1  0  0  0  0
  8  9  1  0  0  0  0
  4 10  1  0  0  0  0
 10 11  1  0  0  0  0
 11 12  2  0  0  0  0
 11 13  1  0  0  0  0
 13 14  1  0  0  0  0
 14 15  2  0  0  0  0
 14 16  2  0  0  0  0
 14 17  1  0  0  0  0
 17 18  2  0  0  0  0
 18 19  1  0  0  0  0
 19 20  2  0  0  0  0
 20 21  1  0  0  0  0
 21 22  2  0  0  0  0
 17 22  1  0  0  0  0
 22 23  1  0  0  0  0
  1 24  1  0  0  0  0
  1 25  1  0  0  0  0
  1 26  1  0  0  0  0
  9 27  1  0  0  0  0
  9 28  1  0  0  0  0
  9 29  1  0  0  0  0
 10 30  1  0  0  0  0
 13 31  1  0  0  0  0
 18 32  1  0  0  0  0
 19 33  1  0  0  0  0
 20 34  1  0  0  0  0
 21 35  1  0  0  0  0
M  END
> <Gold.Version>
2021.2.0

> <Gold.Id.Protein>
5K6Q|5K6Q_protein|mol2

> <Gold.PLP.Fitness>
29.2246

> <Gold.PLP.PLP>
-30.3565

> <Gold.PLP.part.hbond>
-2.0000

> <Gold.PLP.part.metal>
0.0000

> <Gold.PLP.part.buried>
-6.3284

> <Gold.PLP.part.nonpolar>
-22.3563

> <Gold.PLP.part.repulsive>
0.3476

> <Gold.PLP.ligand.clash>
0.0000

> <Gold.PLP.ligand.torsion>
2.2013

> <Gold.PLP.Chemscore.Hbond>
0.0000

> <Gold.PLP.Chemscore.CHOScore>
0.0000

> <Gold.PLP.Chemscore.Metal>
0.0000

> <Gold.PLP.Chemscore.Internal.Correction>
3.2706

> <Gold.Protein.RotatedTorsions>
[ 5877 1703 1702 1700 ] final   23.89 input   60.01 | X-H torsion
[ 6057 1881 1880 1877 ] final -136.66 input   60.00 | X-H torsion
[ 7193 2255 2254 2251 ] final  -65.66 input   60.00 | X-H torsion
[ 7182 2269 2268 2267 ] final   18.42 input   59.99 | X-H torsion
[ 6931 4361 4360 4357 ] final  -84.07 input   60.01 | X-H torsion
[ 8180 4471 4470 4468 ] final -179.94 input   60.00 | X-H torsion
[ 8184 4473 4472 4470 ] final -121.09 input   60.00 | X-H torsion
[ 8203 4505 4504 4503 ] final  -75.18 input   60.00 | X-H torsion
[ 8212 4507 4506 4504 ] final   10.84 input   60.00 | X-H torsion
[ 8221 4509 4508 4506 ] final -148.70 input   60.00 | X-H torsion

> <Gold.Protein.ActiveResidues>
 TYR305  THR331  LEU332  MET333  LEU349  GLY350  MET351  HIS352  GLY353  ASN358 
 VAL372  ARG373  PHE374  ASP375  ASP376  ARG377  VAL378  THR379  GLY380  LYS381 
 LEU382  PHE385  ASN404  GLY508  GLY509  TRP574  ILE651  PRO652  SER653  GLY654 
 GLY655  FAD702  HOH839  HOH865  HOH881  HOH913  HOH945  HOH958  HOH960  HOH966 
 HOH968 

> <Gold.Protein.RotatedAtoms>
   61.2292  -73.3448   -3.3290 H   0  0  0  0  0  0  0  0  0  0  0  0  # atno 5877 bound_to 1703
   61.3481  -67.8712   -4.5898 H   0  0  0  0  0  0  0  0  0  0  0  0  # atno 6057 bound_to 1881
   68.4192  -80.9637  -11.8415 H   0  0  0  0  0  0  0  0  0  0  0  0  # atno 6931 bound_to 4361
   63.2455  -90.5197   -2.2735 H   0  0  0  0  0  0  0  0  0  0  0  0  # atno 7182 bound_to 2269
   63.0356  -89.5527   -0.9438 H   0  0  0  0  0  0  0  0  0  0  0  0  # atno 7183 bound_to 2269
   61.7167  -90.1367   -1.7603 H   0  0  0  0  0  0  0  0  0  0  0  0  # atno 7184 bound_to 2269
   61.5414  -79.3758   -6.0027 H   0  0  0  0  0  0  0  0  0  0  0  0  # atno 7193 bound_to 2255
   52.4077  -69.7185   -8.4693 H   0  0  0  0  0  0  0  0  0  0  0  0  # atno 8180 bound_to 4471
   50.9820  -67.1455   -9.1211 H   0  0  0  0  0  0  0  0  0  0  0  0  # atno 8184 bound_to 4473
   64.0800  -71.8098  -12.1768 H   0  0  0  0  0  0  0  0  0  0  0  0  # atno 8203 bound_to 4505
   63.9116  -69.8286  -11.4031 H   0  0  0  0  0  0  0  0  0  0  0  0  # atno 8212 bound_to 4507
   62.3732  -71.6860   -7.0560 H   0  0  0  0  0  0  0  0  0  0  0  0  # atno 8221 bound_to 4509
   59.6862  -73.0638   -3.7628 LP  0  0  0  0  0  0  0  0  0  0  0  0  # atno 9612 bound_to 1703
   60.1087  -74.5075   -3.1275 LP  0  0  0  0  0  0  0  0  0  0  0  0  # atno 9613 bound_to 1703
   62.4576  -67.5920   -5.7470 LP  0  0  0  0  0  0  0  0  0  0  0  0  # atno 9616 bound_to 1881
   62.6098  -66.8913   -4.2799 LP  0  0  0  0  0  0  0  0  0  0  0  0  # atno 9617 bound_to 1881
   60.3747  -80.4184   -5.5556 LP  0  0  0  0  0  0  0  0  0  0  0  0  # atno 9661 bound_to 2255
   61.9399  -80.8837   -5.5383 LP  0  0  0  0  0  0  0  0  0  0  0  0  # atno 9662 bound_to 2255
   69.5479  -81.5155  -12.8756 LP  0  0  0  0  0  0  0  0  0  0  0  0  # atno 9687 bound_to 4361
   69.9686  -81.0822  -11.3584 LP  0  0  0  0  0  0  0  0  0  0  0  0  # atno 9688 bound_to 4361
   52.6771  -69.4170   -6.8930 LP  0  0  0  0  0  0  0  0  0  0  0  0  # atno 9695 bound_to 4471
   53.8137  -70.1740   -7.7884 LP  0  0  0  0  0  0  0  0  0  0  0  0  # atno 9696 bound_to 4471
   50.7562  -67.5458   -7.5602 LP  0  0  0  0  0  0  0  0  0  0  0  0  # atno 9697 bound_to 4473
   51.4234  -68.6201   -8.5933 LP  0  0  0  0  0  0  0  0  0  0  0  0  # atno 9698 bound_to 4473
   63.7784  -73.2140  -11.4116 LP  0  0  0  0  0  0  0  0  0  0  0  0  # atno 9706 bound_to 4505
   65.3176  -72.7149  -11.6314 LP  0  0  0  0  0  0  0  0  0  0  0  0  # atno 9707 bound_to 4505
   63.1379  -68.9997  -10.2359 LP  0  0  0  0  0  0  0  0  0  0  0  0  # atno 9708 bound_to 4507
   62.2896  -69.7033  -11.4410 LP  0  0  0  0  0  0  0  0  0  0  0  0  # atno 9709 bound_to 4507
   63.9295  -71.6763   -7.5313 LP  0  0  0  0  0  0  0  0  0  0  0  0  # atno 9710 bound_to 4509
   62.8246  -72.5458   -8.3618 LP  0  0  0  0  0  0  0  0  0  0  0  0  # atno 9711 bound_to 4509

$$$$
