C12H12ClN5O4S|Chlorsulfuron|mol|1|dock44
  -GOLD-   2292221543D 1   1.00000     0.00000
 
 35 36  0  0  0  0  0  0  0  0  1 V2000
   67.4211  -73.9982  -13.7722 C   0  0  0  0  0  0  0  0  0  0  0  0
   66.4861  -74.9306  -14.4986 C   0  0  0  0  0  0  0  0  0  0  0  0
   65.3495  -75.2969  -13.9331 N   0  0  0  0  0  0  0  0  0  0  0  0
   64.5225  -76.1197  -14.5720 C   0  0  0  0  0  0  0  0  0  0  0  0
   64.8405  -76.5725  -15.7791 N   0  0  0  0  0  0  0  0  0  0  0  0
   65.9829  -76.2023  -16.3437 C   0  0  0  0  0  0  0  0  0  0  0  0
   66.8024  -75.3758  -15.7025 N   0  0  0  0  0  0  0  0  0  0  0  0
   66.3107  -76.6621  -17.5733 O   0  0  0  0  0  0  0  0  0  0  0  0
   66.4283  -75.5197  -18.4237 C   0  0  0  0  0  0  0  0  0  0  0  0
   63.3311  -76.5040  -13.9787 N   0  0  0  0  0  0  0  0  0  0  0  0
   62.1590  -76.0492  -14.4643 C   0  0  0  0  0  0  0  0  0  0  0  0
   62.1472  -75.3016  -15.4228 O   0  0  0  0  0  0  0  0  0  0  0  0
   60.9998  -76.4230  -13.8871 N   0  0  0  0  0  0  0  0  0  0  0  0
   59.5691  -75.7670  -14.4019 S   0  0  0  0  0  0  0  0  0  0  0  0
   58.5481  -76.5917  -13.8574 O   0  0  0  0  0  0  0  0  0  0  0  0
   59.6911  -74.3660  -14.1977 O   0  0  0  0  0  0  0  0  0  0  0  0
   59.4850  -75.9907  -16.1476 C   0  0  0  0  0  0  0  0  0  0  0  0
   59.6818  -74.9150  -16.9925 C   0  0  0  0  0  0  0  0  0  0  0  0
   59.6157  -75.0903  -18.3623 C   0  0  0  0  0  0  0  0  0  0  0  0
   59.3524  -76.3414  -18.8875 C   0  0  0  0  0  0  0  0  0  0  0  0
   59.1549  -77.4182  -18.0435 C   0  0  0  0  0  0  0  0  0  0  0  0
   59.2273  -77.2446  -16.6729 C   0  0  0  0  0  0  0  0  0  0  0  0
   58.9800  -78.5965  -15.6123 Cl  0  0  0  0  0  0  0  0  0  0  0  0
   68.1189  -74.5799  -13.1699 H   0  0  0  0  0  0  0  0  0  0  0  0
   67.9758  -73.4024  -14.4970 H   0  0  0  0  0  0  0  0  0  0  0  0
   66.8447  -73.3380  -13.1241 H   0  0  0  0  0  0  0  0  0  0  0  0
   66.6928  -75.8421  -19.4308 H   0  0  0  0  0  0  0  0  0  0  0  0
   65.4776  -74.9873  -18.4505 H   0  0  0  0  0  0  0  0  0  0  0  0
   67.2043  -74.8583  -18.0384 H   0  0  0  0  0  0  0  0  0  0  0  0
   63.3404  -77.1005  -13.2138 H   0  0  0  0  0  0  0  0  0  0  0  0
   61.0037  -77.0764  -13.1702 H   0  0  0  0  0  0  0  0  0  0  0  0
   59.8869  -73.9370  -16.5826 H   0  0  0  0  0  0  0  0  0  0  0  0
   59.7696  -74.2493  -19.0222 H   0  0  0  0  0  0  0  0  0  0  0  0
   59.3006  -76.4777  -19.9577 H   0  0  0  0  0  0  0  0  0  0  0  0
   58.9484  -78.3955  -18.4539 H   0  0  0  0  0  0  0  0  0  0  0  0
  1  2  1  0  0  0  0
  2  3  2  0  0  0  0
  3  4  1  0  0  0  0
  4  5  2  0  0  0  0
  5  6  1  0  0  0  0
  6  7  2  0  0  0  0
  2  7  1  0  0  0  0
  6  8  1  0  0  0  0
  8  9  1  0  0  0  0
  4 10  1  0  0  0  0
 10 11  1  0  0  0  0
 11 12  2  0  0  0  0
 11 13  1  0  0  0  0
 13 14  1  0  0  0  0
 14 15  2  0  0  0  0
 14 16  2  0  0  0  0
 14 17  1  0  0  0  0
 17 18  2  0  0  0  0
 18 19  1  0  0  0  0
 19 20  2  0  0  0  0
 20 21  1  0  0  0  0
 21 22  2  0  0  0  0
 17 22  1  0  0  0  0
 22 23  1  0  0  0  0
  1 24  1  0  0  0  0
  1 25  1  0  0  0  0
  1 26  1  0  0  0  0
  9 27  1  0  0  0  0
  9 28  1  0  0  0  0
  9 29  1  0  0  0  0
 10 30  1  0  0  0  0
 13 31  1  0  0  0  0
 18 32  1  0  0  0  0
 19 33  1  0  0  0  0
 20 34  1  0  0  0  0
 21 35  1  0  0  0  0
M  END
> <Gold.Version>
2021.2.0

> <Gold.Id.Protein>
5K6Q|5K6Q_protein|mol2

> <Gold.PLP.Fitness>
28.6865

> <Gold.PLP.PLP>
-21.0844

> <Gold.PLP.part.hbond>
-4.4692

> <Gold.PLP.part.metal>
0.0000

> <Gold.PLP.part.buried>
-5.3203

> <Gold.PLP.part.nonpolar>
-12.7990

> <Gold.PLP.part.repulsive>
0.4520

> <Gold.PLP.ligand.clash>
0.0000

> <Gold.PLP.ligand.torsion>
2.2006

> <Gold.PLP.Chemscore.Hbond>
2.9109

> <Gold.PLP.Chemscore.CHOScore>
0.0000

> <Gold.PLP.Chemscore.Metal>
0.0000

> <Gold.Chemscore.Hbonds>
donor molecule, donor type, donor heavy atom, donor atom, acceptor molecule, acceptor atom, score
      L1  H    10    30       P1  2230  0.91
      L1  H    13    31       P1  2230  0.15
      P1  H  2203  7120       L1    16  1.00
      P1  H  4717  8548       L1     8  0.85

> <Gold.PLP.Chemscore.Internal.Correction>
3.2706

> <Gold.Protein.RotatedTorsions>
[ 5877 1703 1702 1700 ] final -107.35 input   60.01 | X-H torsion
[ 6057 1881 1880 1877 ] final  134.66 input   60.00 | X-H torsion
[ 7193 2255 2254 2251 ] final   91.10 input   60.00 | X-H torsion
[ 7182 2269 2268 2267 ] final  -62.51 input   59.99 | X-H torsion
[ 6931 4361 4360 4357 ] final  163.98 input   60.01 | X-H torsion
[ 8180 4471 4470 4468 ] final  101.77 input   60.00 | X-H torsion
[ 8184 4473 4472 4470 ] final  164.05 input   60.00 | X-H torsion
[ 8203 4505 4504 4503 ] final  117.42 input   60.00 | X-H torsion
[ 8212 4507 4506 4504 ] final -100.46 input   60.00 | X-H torsion
[ 8221 4509 4508 4506 ] final  117.41 input   60.00 | X-H torsion

> <Gold.Protein.ActiveResidues>
 TYR305  THR331  LEU332  MET333  LEU349  GLY350  MET351  HIS352  GLY353  ASN358 
 VAL372  ARG373  PHE374  ASP375  ASP376  ARG377  VAL378  THR379  GLY380  LYS381 
 LEU382  PHE385  ASN404  GLY508  GLY509  TRP574  ILE651  PRO652  SER653  GLY654 
 GLY655  FAD702  HOH839  HOH865  HOH881  HOH913  HOH945  HOH958  HOH960  HOH966 
 HOH968 

> <Gold.Protein.RotatedAtoms>
   59.5770  -73.2079   -3.7288 H   0  0  0  0  0  0  0  0  0  0  0  0  # atno 5877 bound_to 1703
   62.0321  -67.8650   -5.7056 H   0  0  0  0  0  0  0  0  0  0  0  0  # atno 6057 bound_to 1881
   69.4186  -81.5025  -12.8994 H   0  0  0  0  0  0  0  0  0  0  0  0  # atno 6931 bound_to 4361
   62.0054  -90.4735   -2.2214 H   0  0  0  0  0  0  0  0  0  0  0  0  # atno 7182 bound_to 2269
   63.5959  -90.2065   -1.8389 H   0  0  0  0  0  0  0  0  0  0  0  0  # atno 7183 bound_to 2269
   62.3968  -89.5287   -0.9170 H   0  0  0  0  0  0  0  0  0  0  0  0  # atno 7184 bound_to 2269
   61.4056  -81.1076   -5.4143 H   0  0  0  0  0  0  0  0  0  0  0  0  # atno 7193 bound_to 2255
   52.2142  -69.3333   -7.3687 H   0  0  0  0  0  0  0  0  0  0  0  0  # atno 8180 bound_to 4471
   50.6668  -67.0113   -8.0359 H   0  0  0  0  0  0  0  0  0  0  0  0  # atno 8184 bound_to 4473
   64.5024  -73.3881  -11.2854 H   0  0  0  0  0  0  0  0  0  0  0  0  # atno 8203 bound_to 4505
   63.2784  -69.0220  -10.2463 H   0  0  0  0  0  0  0  0  0  0  0  0  # atno 8212 bound_to 4507
   63.7178  -71.4892   -7.2143 H   0  0  0  0  0  0  0  0  0  0  0  0  # atno 8221 bound_to 4509
   60.2876  -74.5223   -3.0842 LP  0  0  0  0  0  0  0  0  0  0  0  0  # atno 9612 bound_to 1703
   61.1713  -73.1868   -3.4035 LP  0  0  0  0  0  0  0  0  0  0  0  0  # atno 9613 bound_to 1703
   62.8759  -66.8889   -4.7139 LP  0  0  0  0  0  0  0  0  0  0  0  0  # atno 9616 bound_to 1881
   61.5029  -67.6007   -4.1895 LP  0  0  0  0  0  0  0  0  0  0  0  0  # atno 9617 bound_to 1881
   62.0327  -79.7011   -5.9400 LP  0  0  0  0  0  0  0  0  0  0  0  0  # atno 9661 bound_to 2255
   60.4188  -79.8570   -5.7463 LP  0  0  0  0  0  0  0  0  0  0  0  0  # atno 9662 bound_to 2255
   70.0539  -81.1282  -11.4487 LP  0  0  0  0  0  0  0  0  0  0  0  0  # atno 9687 bound_to 4361
   68.4562  -80.9271  -11.7201 LP  0  0  0  0  0  0  0  0  0  0  0  0  # atno 9688 bound_to 4361
   53.7038  -69.9553   -7.1633 LP  0  0  0  0  0  0  0  0  0  0  0  0  # atno 9695 bound_to 4471
   52.9818  -70.0237   -8.6265 LP  0  0  0  0  0  0  0  0  0  0  0  0  # atno 9696 bound_to 4471
   51.2229  -68.5348   -7.9033 LP  0  0  0  0  0  0  0  0  0  0  0  0  # atno 9697 bound_to 4473
   51.2741  -67.7663   -9.3432 LP  0  0  0  0  0  0  0  0  0  0  0  0  # atno 9698 bound_to 4473
   65.1456  -72.0722  -11.9944 LP  0  0  0  0  0  0  0  0  0  0  0  0  # atno 9706 bound_to 4505
   63.5250  -72.2673  -11.9462 LP  0  0  0  0  0  0  0  0  0  0  0  0  # atno 9707 bound_to 4505
   62.2310  -69.6287  -11.3339 LP  0  0  0  0  0  0  0  0  0  0  0  0  # atno 9708 bound_to 4507
   63.8341  -69.8866  -11.5079 LP  0  0  0  0  0  0  0  0  0  0  0  0  # atno 9709 bound_to 4507
   63.2433  -72.4845   -8.4111 LP  0  0  0  0  0  0  0  0  0  0  0  0  # atno 9710 bound_to 4509
   62.1567  -71.9359   -7.3226 LP  0  0  0  0  0  0  0  0  0  0  0  0  # atno 9711 bound_to 4509

$$$$
