C12H12ClN5O4S|Chlorsulfuron|mol|1|dock3
  -GOLD-   2292221533D 1   1.00000     0.00000
 
 35 36  0  0  0  0  0  0  0  0  1 V2000
   63.4768  -74.6298  -18.1103 C   0  0  0  0  0  0  0  0  0  0  0  0
   62.6287  -75.2556  -17.0331 C   0  0  0  0  0  0  0  0  0  0  0  0
   63.1191  -76.2344  -16.2934 N   0  0  0  0  0  0  0  0  0  0  0  0
   62.3728  -76.7886  -15.3420 C   0  0  0  0  0  0  0  0  0  0  0  0
   61.1340  -76.3568  -15.1366 N   0  0  0  0  0  0  0  0  0  0  0  0
   60.6451  -75.3736  -15.8816 C   0  0  0  0  0  0  0  0  0  0  0  0
   61.3976  -74.8204  -16.8269 N   0  0  0  0  0  0  0  0  0  0  0  0
   59.3830  -74.9313  -15.6756 O   0  0  0  0  0  0  0  0  0  0  0  0
   59.4815  -73.5495  -15.3250 C   0  0  0  0  0  0  0  0  0  0  0  0
   62.8871  -77.8151  -14.5668 N   0  0  0  0  0  0  0  0  0  0  0  0
   63.6208  -78.7896  -15.1399 C   0  0  0  0  0  0  0  0  0  0  0  0
   63.8312  -78.7680  -16.3370 O   0  0  0  0  0  0  0  0  0  0  0  0
   64.1211  -79.7884  -14.3857 N   0  0  0  0  0  0  0  0  0  0  0  0
   64.9146  -81.0515  -15.1051 S   0  0  0  0  0  0  0  0  0  0  0  0
   66.1377  -80.5138  -15.5888 O   0  0  0  0  0  0  0  0  0  0  0  0
   64.7955  -82.1449  -14.2054 O   0  0  0  0  0  0  0  0  0  0  0  0
   63.9926  -81.5064  -16.5360 C   0  0  0  0  0  0  0  0  0  0  0  0
   64.6259  -81.6200  -17.7590 C   0  0  0  0  0  0  0  0  0  0  0  0
   63.9025  -81.9768  -18.8819 C   0  0  0  0  0  0  0  0  0  0  0  0
   62.5455  -82.2198  -18.7821 C   0  0  0  0  0  0  0  0  0  0  0  0
   61.9108  -82.1062  -17.5593 C   0  0  0  0  0  0  0  0  0  0  0  0
   62.6353  -81.7554  -16.4343 C   0  0  0  0  0  0  0  0  0  0  0  0
   61.8389  -81.6130  -14.8982 Cl  0  0  0  0  0  0  0  0  0  0  0  0
   63.3292  -75.1671  -19.0470 H   0  0  0  0  0  0  0  0  0  0  0  0
   63.1878  -73.5868  -18.2402 H   0  0  0  0  0  0  0  0  0  0  0  0
   64.5268  -74.6828  -17.8226 H   0  0  0  0  0  0  0  0  0  0  0  0
   58.4839  -73.1474  -15.1486 H   0  0  0  0  0  0  0  0  0  0  0  0
   60.0803  -73.4462  -14.4201 H   0  0  0  0  0  0  0  0  0  0  0  0
   59.9557  -73.0011  -16.1389 H   0  0  0  0  0  0  0  0  0  0  0  0
   62.7192  -77.8325  -13.6116 H   0  0  0  0  0  0  0  0  0  0  0  0
   64.0165  -79.7673  -13.4217 H   0  0  0  0  0  0  0  0  0  0  0  0
   65.6861  -81.4295  -17.8377 H   0  0  0  0  0  0  0  0  0  0  0  0
   64.3979  -82.0655  -19.8375 H   0  0  0  0  0  0  0  0  0  0  0  0
   61.9809  -82.4983  -19.6597 H   0  0  0  0  0  0  0  0  0  0  0  0
   60.8503  -82.2953  -17.4816 H   0  0  0  0  0  0  0  0  0  0  0  0
  1  2  1  0  0  0  0
  2  3  2  0  0  0  0
  3  4  1  0  0  0  0
  4  5  2  0  0  0  0
  5  6  1  0  0  0  0
  6  7  2  0  0  0  0
  2  7  1  0  0  0  0
  6  8  1  0  0  0  0
  8  9  1  0  0  0  0
  4 10  1  0  0  0  0
 10 11  1  0  0  0  0
 11 12  2  0  0  0  0
 11 13  1  0  0  0  0
 13 14  1  0  0  0  0
 14 15  2  0  0  0  0
 14 16  2  0  0  0  0
 14 17  1  0  0  0  0
 17 18  2  0  0  0  0
 18 19  1  0  0  0  0
 19 20  2  0  0  0  0
 20 21  1  0  0  0  0
 21 22  2  0  0  0  0
 17 22  1  0  0  0  0
 22 23  1  0  0  0  0
  1 24  1  0  0  0  0
  1 25  1  0  0  0  0
  1 26  1  0  0  0  0
  9 27  1  0  0  0  0
  9 28  1  0  0  0  0
  9 29  1  0  0  0  0
 10 30  1  0  0  0  0
 13 31  1  0  0  0  0
 18 32  1  0  0  0  0
 19 33  1  0  0  0  0
 20 34  1  0  0  0  0
 21 35  1  0  0  0  0
M  END
> <Gold.Version>
2021.2.0

> <Gold.Id.Protein>
5K6Q|5K6Q_protein|mol2

> <Gold.PLP.Fitness>
20.3383

> <Gold.PLP.PLP>
-13.8777

> <Gold.PLP.part.hbond>
-6.3081

> <Gold.PLP.part.metal>
0.0000

> <Gold.PLP.part.buried>
-1.9243

> <Gold.PLP.part.nonpolar>
-8.1178

> <Gold.PLP.part.repulsive>
0.5495

> <Gold.PLP.ligand.clash>
0.0000

> <Gold.PLP.ligand.torsion>
1.9926

> <Gold.PLP.Chemscore.Hbond>
2.3821

> <Gold.PLP.Chemscore.CHOScore>
0.0000

> <Gold.PLP.Chemscore.Metal>
0.0000

> <Gold.Chemscore.Hbonds>
donor molecule, donor type, donor heavy atom, donor atom, acceptor molecule, acceptor atom, score
      L1  H    10    30       P1  2230  0.75
      L1  H    13    31       P1  2231  0.83
      P1  H  2242  7198       L1    15  0.56
      P1  H  4725  8552       L1    16  0.24

> <Gold.PLP.Chemscore.Internal.Correction>
3.2994

> <Gold.Protein.RotatedTorsions>
[ 5877 1703 1702 1700 ] final -129.35 input   60.01 | X-H torsion
[ 6057 1881 1880 1877 ] final  -70.52 input   60.00 | X-H torsion
[ 7193 2255 2254 2251 ] final -179.14 input   60.00 | X-H torsion
[ 7182 2269 2268 2267 ] final   11.47 input   59.99 | X-H torsion
[ 6931 4361 4360 4357 ] final  137.87 input   60.01 | X-H torsion
[ 8180 4471 4470 4468 ] final -146.26 input   60.00 | X-H torsion
[ 8184 4473 4472 4470 ] final    4.39 input   60.00 | X-H torsion
[ 8203 4505 4504 4503 ] final  150.54 input   60.00 | X-H torsion
[ 8212 4507 4506 4504 ] final  -21.91 input   60.00 | X-H torsion
[ 8221 4509 4508 4506 ] final -119.84 input   60.00 | X-H torsion

> <Gold.Protein.ActiveResidues>
 TYR305  THR331  LEU332  MET333  LEU349  GLY350  MET351  HIS352  GLY353  ASN358 
 VAL372  ARG373  PHE374  ASP375  ASP376  ARG377  VAL378  THR379  GLY380  LYS381 
 LEU382  PHE385  ASN404  GLY508  GLY509  TRP574  ILE651  PRO652  SER653  GLY654 
 GLY655  FAD702  HOH839  HOH865  HOH881  HOH913  HOH945  HOH958  HOH960  HOH966 
 HOH968 

> <Gold.Protein.RotatedAtoms>
   59.4430  -73.5261   -3.6366 H   0  0  0  0  0  0  0  0  0  0  0  0  # atno 5877 bound_to 1703
   61.8981  -67.2552   -3.9880 H   0  0  0  0  0  0  0  0  0  0  0  0  # atno 6057 bound_to 1881
   69.8107  -81.5211  -12.7416 H   0  0  0  0  0  0  0  0  0  0  0  0  # atno 6931 bound_to 4361
   63.1490  -90.5572   -2.3261 H   0  0  0  0  0  0  0  0  0  0  0  0  # atno 7182 bound_to 2269
   63.1398  -89.5833   -0.9849 H   0  0  0  0  0  0  0  0  0  0  0  0  # atno 7183 bound_to 2269
   61.7090  -90.0685   -1.6666 H   0  0  0  0  0  0  0  0  0  0  0  0  # atno 7184 bound_to 2269
   60.3613  -80.3165   -5.5858 H   0  0  0  0  0  0  0  0  0  0  0  0  # atno 7193 bound_to 2255
   52.8627  -69.9676   -8.6280 H   0  0  0  0  0  0  0  0  0  0  0  0  # atno 8180 bound_to 4471
   51.4090  -68.6315   -8.5052 H   0  0  0  0  0  0  0  0  0  0  0  0  # atno 8184 bound_to 4473
   63.9768  -73.3175  -11.3441 H   0  0  0  0  0  0  0  0  0  0  0  0  # atno 8203 bound_to 4505
   64.0480  -69.5601  -10.9695 H   0  0  0  0  0  0  0  0  0  0  0  0  # atno 8212 bound_to 4507
   62.1503  -71.9617   -7.3596 H   0  0  0  0  0  0  0  0  0  0  0  0  # atno 8221 bound_to 4509
   60.6377  -74.4538   -3.0364 LP  0  0  0  0  0  0  0  0  0  0  0  0  # atno 9612 bound_to 1703
   60.9562  -72.9348   -3.5442 LP  0  0  0  0  0  0  0  0  0  0  0  0  # atno 9613 bound_to 1703
   61.5965  -68.0265   -5.3888 LP  0  0  0  0  0  0  0  0  0  0  0  0  # atno 9616 bound_to 1881
   62.9172  -67.0771   -5.2441 LP  0  0  0  0  0  0  0  0  0  0  0  0  # atno 9617 bound_to 1881
   61.8591  -80.9481   -5.5097 LP  0  0  0  0  0  0  0  0  0  0  0  0  # atno 9661 bound_to 2255
   61.6440  -79.4066   -6.0039 LP  0  0  0  0  0  0  0  0  0  0  0  0  # atno 9662 bound_to 2255
   69.7331  -80.9879  -11.2061 LP  0  0  0  0  0  0  0  0  0  0  0  0  # atno 9687 bound_to 4361
   68.3822  -81.0486  -12.1216 LP  0  0  0  0  0  0  0  0  0  0  0  0  # atno 9688 bound_to 4361
   52.2736  -69.3310   -7.2512 LP  0  0  0  0  0  0  0  0  0  0  0  0  # atno 9695 bound_to 4471
   53.7589  -70.0092   -7.2704 LP  0  0  0  0  0  0  0  0  0  0  0  0  # atno 9696 bound_to 4471
   51.0165  -67.2040   -9.1803 LP  0  0  0  0  0  0  0  0  0  0  0  0  # atno 9697 bound_to 4473
   50.7331  -67.4654   -7.5935 LP  0  0  0  0  0  0  0  0  0  0  0  0  # atno 9698 bound_to 4473
   65.3316  -72.5100  -11.7446 LP  0  0  0  0  0  0  0  0  0  0  0  0  # atno 9706 bound_to 4505
   63.8683  -71.9006  -12.1370 LP  0  0  0  0  0  0  0  0  0  0  0  0  # atno 9707 bound_to 4505
   62.6258  -69.0417  -10.3724 LP  0  0  0  0  0  0  0  0  0  0  0  0  # atno 9708 bound_to 4507
   62.6643  -69.9316  -11.7411 LP  0  0  0  0  0  0  0  0  0  0  0  0  # atno 9709 bound_to 4507
   63.6921  -71.4731   -7.1803 LP  0  0  0  0  0  0  0  0  0  0  0  0  # atno 9710 bound_to 4509
   63.2865  -72.4715   -8.4071 LP  0  0  0  0  0  0  0  0  0  0  0  0  # atno 9711 bound_to 4509

$$$$
