C12H12ClN5O4S|Chlorsulfuron|mol|1|dock13
  -GOLD-   2292221533D 1   1.00000     0.00000
 
 35 36  0  0  0  0  0  0  0  0  1 V2000
   65.8442  -76.1319  -18.5293 C   0  0  0  0  0  0  0  0  0  0  0  0
   65.9268  -75.9572  -17.0346 C   0  0  0  0  0  0  0  0  0  0  0  0
   64.8209  -75.8187  -16.3251 N   0  0  0  0  0  0  0  0  0  0  0  0
   64.8908  -75.6644  -15.0058 C   0  0  0  0  0  0  0  0  0  0  0  0
   66.0737  -75.6497  -14.4027 N   0  0  0  0  0  0  0  0  0  0  0  0
   67.1822  -75.7890  -15.1188 C   0  0  0  0  0  0  0  0  0  0  0  0
   67.1054  -75.9483  -16.4358 N   0  0  0  0  0  0  0  0  0  0  0  0
   68.3894  -75.7740  -14.5078 O   0  0  0  0  0  0  0  0  0  0  0  0
   68.7005  -74.4049  -14.2414 C   0  0  0  0  0  0  0  0  0  0  0  0
   63.7312  -75.5188  -14.2621 N   0  0  0  0  0  0  0  0  0  0  0  0
   62.6624  -76.2981  -14.5207 C   0  0  0  0  0  0  0  0  0  0  0  0
   62.7160  -77.1287  -15.4068 O   0  0  0  0  0  0  0  0  0  0  0  0
   61.5341  -76.1564  -13.7973 N   0  0  0  0  0  0  0  0  0  0  0  0
   60.1808  -77.0237  -14.1955 S   0  0  0  0  0  0  0  0  0  0  0  0
   60.6465  -78.3076  -14.5877 O   0  0  0  0  0  0  0  0  0  0  0  0
   59.2414  -76.7706  -13.1597 O   0  0  0  0  0  0  0  0  0  0  0  0
   59.4983  -76.2975  -15.6486 C   0  0  0  0  0  0  0  0  0  0  0  0
   58.7783  -77.0739  -16.5365 C   0  0  0  0  0  0  0  0  0  0  0  0
   58.2429  -76.5043  -17.6768 C   0  0  0  0  0  0  0  0  0  0  0  0
   58.4277  -75.1580  -17.9296 C   0  0  0  0  0  0  0  0  0  0  0  0
   59.1481  -74.3803  -17.0424 C   0  0  0  0  0  0  0  0  0  0  0  0
   59.6786  -74.9484  -15.8980 C   0  0  0  0  0  0  0  0  0  0  0  0
   60.5829  -73.9723  -14.7831 Cl  0  0  0  0  0  0  0  0  0  0  0  0
   65.8737  -75.1548  -19.0115 H   0  0  0  0  0  0  0  0  0  0  0  0
   66.6873  -76.7318  -18.8721 H   0  0  0  0  0  0  0  0  0  0  0  0
   64.9120  -76.6354  -18.7852 H   0  0  0  0  0  0  0  0  0  0  0  0
   69.6697  -74.3422  -13.7467 H   0  0  0  0  0  0  0  0  0  0  0  0
   68.7347  -73.8510  -15.1795 H   0  0  0  0  0  0  0  0  0  0  0  0
   67.9342  -73.9774  -13.5948 H   0  0  0  0  0  0  0  0  0  0  0  0
   63.6884  -74.8560  -13.5551 H   0  0  0  0  0  0  0  0  0  0  0  0
   61.5149  -75.5465  -13.0433 H   0  0  0  0  0  0  0  0  0  0  0  0
   58.6342  -78.1261  -16.3398 H   0  0  0  0  0  0  0  0  0  0  0  0
   57.6803  -77.1114  -18.3705 H   0  0  0  0  0  0  0  0  0  0  0  0
   58.0094  -74.7136  -18.8207 H   0  0  0  0  0  0  0  0  0  0  0  0
   59.2931  -73.3286  -17.2404 H   0  0  0  0  0  0  0  0  0  0  0  0
  1  2  1  0  0  0  0
  2  3  2  0  0  0  0
  3  4  1  0  0  0  0
  4  5  2  0  0  0  0
  5  6  1  0  0  0  0
  6  7  2  0  0  0  0
  2  7  1  0  0  0  0
  6  8  1  0  0  0  0
  8  9  1  0  0  0  0
  4 10  1  0  0  0  0
 10 11  1  0  0  0  0
 11 12  2  0  0  0  0
 11 13  1  0  0  0  0
 13 14  1  0  0  0  0
 14 15  2  0  0  0  0
 14 16  2  0  0  0  0
 14 17  1  0  0  0  0
 17 18  2  0  0  0  0
 18 19  1  0  0  0  0
 19 20  2  0  0  0  0
 20 21  1  0  0  0  0
 21 22  2  0  0  0  0
 17 22  1  0  0  0  0
 22 23  1  0  0  0  0
  1 24  1  0  0  0  0
  1 25  1  0  0  0  0
  1 26  1  0  0  0  0
  9 27  1  0  0  0  0
  9 28  1  0  0  0  0
  9 29  1  0  0  0  0
 10 30  1  0  0  0  0
 13 31  1  0  0  0  0
 18 32  1  0  0  0  0
 19 33  1  0  0  0  0
 20 34  1  0  0  0  0
 21 35  1  0  0  0  0
M  END
> <Gold.Version>
2021.2.0

> <Gold.Id.Protein>
5K6Q|5K6Q_protein|mol2

> <Gold.PLP.Fitness>
25.6067

> <Gold.PLP.PLP>
-21.3001

> <Gold.PLP.part.hbond>
-3.8969

> <Gold.PLP.part.metal>
0.0000

> <Gold.PLP.part.buried>
-4.9047

> <Gold.PLP.part.nonpolar>
-13.1223

> <Gold.PLP.part.repulsive>
0.5132

> <Gold.PLP.ligand.clash>
0.0000

> <Gold.PLP.ligand.torsion>
2.3056

> <Gold.PLP.Chemscore.Hbond>
1.8800

> <Gold.PLP.Chemscore.CHOScore>
0.0000

> <Gold.PLP.Chemscore.Metal>
0.0000

> <Gold.Chemscore.Hbonds>
donor molecule, donor type, donor heavy atom, donor atom, acceptor molecule, acceptor atom, score
      L1  H    13    31       P1  2222  1.00
      P1  H  2239  7163       L1     8  0.88

> <Gold.PLP.Chemscore.Internal.Correction>
3.2778

> <Gold.Protein.RotatedTorsions>
[ 5877 1703 1702 1700 ] final  -37.51 input   60.01 | X-H torsion
[ 6057 1881 1880 1877 ] final   79.59 input   60.00 | X-H torsion
[ 7193 2255 2254 2251 ] final  147.74 input   60.00 | X-H torsion
[ 7182 2269 2268 2267 ] final -111.26 input   59.99 | X-H torsion
[ 6931 4361 4360 4357 ] final  -10.43 input   60.01 | X-H torsion
[ 8180 4471 4470 4468 ] final  -52.68 input   60.00 | X-H torsion
[ 8184 4473 4472 4470 ] final  142.62 input   60.00 | X-H torsion
[ 8203 4505 4504 4503 ] final  -96.73 input   60.00 | X-H torsion
[ 8212 4507 4506 4504 ] final   38.88 input   60.00 | X-H torsion
[ 8221 4509 4508 4506 ] final  -69.10 input   60.00 | X-H torsion

> <Gold.Protein.ActiveResidues>
 TYR305  THR331  LEU332  MET333  LEU349  GLY350  MET351  HIS352  GLY353  ASN358 
 VAL372  ARG373  PHE374  ASP375  ASP376  ARG377  VAL378  THR379  GLY380  LYS381 
 LEU382  PHE385  ASN404  GLY508  GLY509  TRP574  ILE651  PRO652  SER653  GLY654 
 GLY655  FAD702  HOH839  HOH865  HOH881  HOH913  HOH945  HOH958  HOH960  HOH966 
 HOH968 

> <Gold.Protein.RotatedAtoms>
   60.5546  -72.7706   -3.6884 H   0  0  0  0  0  0  0  0  0  0  0  0  # atno 5877 bound_to 1703
   62.7225  -67.3547   -5.5954 H   0  0  0  0  0  0  0  0  0  0  0  0  # atno 6057 bound_to 1881
   69.2901  -80.8865  -11.1381 H   0  0  0  0  0  0  0  0  0  0  0  0  # atno 6931 bound_to 4361
   61.7100  -90.0417   -1.6296 H   0  0  0  0  0  0  0  0  0  0  0  0  # atno 7182 bound_to 2269
   63.1093  -90.5700   -2.3439 H   0  0  0  0  0  0  0  0  0  0  0  0  # atno 7183 bound_to 2269
   63.1791  -89.5970   -1.0038 H   0  0  0  0  0  0  0  0  0  0  0  0  # atno 7184 bound_to 2269
   60.5789  -80.7843   -5.4493 H   0  0  0  0  0  0  0  0  0  0  0  0  # atno 7193 bound_to 2255
   53.8218  -70.1440   -7.6734 H   0  0  0  0  0  0  0  0  0  0  0  0  # atno 8180 bound_to 4471
   50.6829  -67.2246   -7.7613 H   0  0  0  0  0  0  0  0  0  0  0  0  # atno 8184 bound_to 4473
   63.7776  -71.9686  -12.0999 H   0  0  0  0  0  0  0  0  0  0  0  0  # atno 8203 bound_to 4505
   63.5894  -69.9811  -11.6837 H   0  0  0  0  0  0  0  0  0  0  0  0  # atno 8212 bound_to 4507
   62.2971  -72.4070   -8.0106 H   0  0  0  0  0  0  0  0  0  0  0  0  # atno 8221 bound_to 4509
   59.4576  -73.9533   -3.4744 LP  0  0  0  0  0  0  0  0  0  0  0  0  # atno 9612 bound_to 1703
   61.0167  -74.1962   -3.0541 LP  0  0  0  0  0  0  0  0  0  0  0  0  # atno 9613 bound_to 1703
   62.3103  -67.0039   -4.0607 LP  0  0  0  0  0  0  0  0  0  0  0  0  # atno 9616 bound_to 1881
   61.3733  -67.9996   -4.9536 LP  0  0  0  0  0  0  0  0  0  0  0  0  # atno 9617 bound_to 1881
   62.1727  -80.5430   -5.6721 LP  0  0  0  0  0  0  0  0  0  0  0  0  # atno 9661 bound_to 2255
   61.1112  -79.3406   -5.9790 LP  0  0  0  0  0  0  0  0  0  0  0  0  # atno 9662 bound_to 2255
   68.5155  -81.2110  -12.5320 LP  0  0  0  0  0  0  0  0  0  0  0  0  # atno 9687 bound_to 4361
   70.1241  -81.4645  -12.4104 LP  0  0  0  0  0  0  0  0  0  0  0  0  # atno 9688 bound_to 4361
   52.4902  -69.7758   -8.5333 LP  0  0  0  0  0  0  0  0  0  0  0  0  # atno 9695 bound_to 4471
   52.5764  -69.3867   -6.9497 LP  0  0  0  0  0  0  0  0  0  0  0  0  # atno 9696 bound_to 4471
   51.3403  -68.6421   -8.2157 LP  0  0  0  0  0  0  0  0  0  0  0  0  # atno 9697 bound_to 4473
   51.1405  -67.4442   -9.3074 LP  0  0  0  0  0  0  0  0  0  0  0  0  # atno 9698 bound_to 4473
   64.0842  -73.3624  -11.3179 LP  0  0  0  0  0  0  0  0  0  0  0  0  # atno 9706 bound_to 4505
   65.3164  -72.4066  -11.8025 LP  0  0  0  0  0  0  0  0  0  0  0  0  # atno 9707 bound_to 4505
   63.5770  -69.0938  -10.3197 LP  0  0  0  0  0  0  0  0  0  0  0  0  # atno 9708 bound_to 4507
   62.1749  -69.4556  -11.0746 LP  0  0  0  0  0  0  0  0  0  0  0  0  # atno 9709 bound_to 4507
   62.9426  -71.4282   -6.8822 LP  0  0  0  0  0  0  0  0  0  0  0  0  # atno 9710 bound_to 4509
   63.8881  -72.0679   -8.0497 LP  0  0  0  0  0  0  0  0  0  0  0  0  # atno 9711 bound_to 4509

$$$$
