C12H12ClN5O4S|Chlorsulfuron|mol|1|dock26
  -GOLD-   2292221533D 1   1.00000     0.00000
 
 35 36  0  0  0  0  0  0  0  0  1 V2000
   57.0949  -78.4818  -16.2546 C   0  0  0  0  0  0  0  0  0  0  0  0
   58.4090  -77.8702  -15.8417 C   0  0  0  0  0  0  0  0  0  0  0  0
   59.3153  -78.6088  -15.2262 N   0  0  0  0  0  0  0  0  0  0  0  0
   60.4759  -78.0716  -14.8607 C   0  0  0  0  0  0  0  0  0  0  0  0
   60.7226  -76.7920  -15.1153 N   0  0  0  0  0  0  0  0  0  0  0  0
   59.8099  -76.0535  -15.7338 C   0  0  0  0  0  0  0  0  0  0  0  0
   58.6545  -76.5974  -16.1012 N   0  0  0  0  0  0  0  0  0  0  0  0
   60.0575  -74.7490  -15.9944 O   0  0  0  0  0  0  0  0  0  0  0  0
   60.5998  -74.1846  -14.7989 C   0  0  0  0  0  0  0  0  0  0  0  0
   61.4259  -78.8461  -14.2149 N   0  0  0  0  0  0  0  0  0  0  0  0
   61.8148  -80.0204  -14.7498 C   0  0  0  0  0  0  0  0  0  0  0  0
   61.3321  -80.4001  -15.7989 O   0  0  0  0  0  0  0  0  0  0  0  0
   62.7390  -80.7739  -14.1215 N   0  0  0  0  0  0  0  0  0  0  0  0
   63.1250  -82.2727  -14.7106 S   0  0  0  0  0  0  0  0  0  0  0  0
   64.2028  -82.7367  -13.9092 O   0  0  0  0  0  0  0  0  0  0  0  0
   61.8871  -82.9460  -14.8941 O   0  0  0  0  0  0  0  0  0  0  0  0
   63.7917  -82.0481  -16.3260 C   0  0  0  0  0  0  0  0  0  0  0  0
   63.5973  -83.0145  -17.2945 C   0  0  0  0  0  0  0  0  0  0  0  0
   64.1204  -82.8385  -18.5621 C   0  0  0  0  0  0  0  0  0  0  0  0
   64.8386  -81.6961  -18.8614 C   0  0  0  0  0  0  0  0  0  0  0  0
   65.0342  -80.7288  -17.8934 C   0  0  0  0  0  0  0  0  0  0  0  0
   64.5054  -80.9014  -16.6268 C   0  0  0  0  0  0  0  0  0  0  0  0
   64.7501  -79.6868  -15.4108 Cl  0  0  0  0  0  0  0  0  0  0  0  0
   56.3724  -78.3704  -15.4461 H   0  0  0  0  0  0  0  0  0  0  0  0
   56.7233  -77.9767  -17.1462 H   0  0  0  0  0  0  0  0  0  0  0  0
   57.2387  -79.5406  -16.4700 H   0  0  0  0  0  0  0  0  0  0  0  0
   60.8165  -73.1288  -14.9613 H   0  0  0  0  0  0  0  0  0  0  0  0
   59.8778  -74.2870  -13.9888 H   0  0  0  0  0  0  0  0  0  0  0  0
   61.5190  -74.7076  -14.5346 H   0  0  0  0  0  0  0  0  0  0  0  0
   61.8111  -78.5431  -13.3778 H   0  0  0  0  0  0  0  0  0  0  0  0
   63.1780  -80.4383  -13.3244 H   0  0  0  0  0  0  0  0  0  0  0  0
   63.0368  -83.9078  -17.0610 H   0  0  0  0  0  0  0  0  0  0  0  0
   63.9682  -83.5941  -19.3186 H   0  0  0  0  0  0  0  0  0  0  0  0
   65.2473  -81.5593  -19.8517 H   0  0  0  0  0  0  0  0  0  0  0  0
   65.5960  -79.8366  -18.1271 H   0  0  0  0  0  0  0  0  0  0  0  0
  1  2  1  0  0  0  0
  2  3  2  0  0  0  0
  3  4  1  0  0  0  0
  4  5  2  0  0  0  0
  5  6  1  0  0  0  0
  6  7  2  0  0  0  0
  2  7  1  0  0  0  0
  6  8  1  0  0  0  0
  8  9  1  0  0  0  0
  4 10  1  0  0  0  0
 10 11  1  0  0  0  0
 11 12  2  0  0  0  0
 11 13  1  0  0  0  0
 13 14  1  0  0  0  0
 14 15  2  0  0  0  0
 14 16  2  0  0  0  0
 14 17  1  0  0  0  0
 17 18  2  0  0  0  0
 18 19  1  0  0  0  0
 19 20  2  0  0  0  0
 20 21  1  0  0  0  0
 21 22  2  0  0  0  0
 17 22  1  0  0  0  0
 22 23  1  0  0  0  0
  1 24  1  0  0  0  0
  1 25  1  0  0  0  0
  1 26  1  0  0  0  0
  9 27  1  0  0  0  0
  9 28  1  0  0  0  0
  9 29  1  0  0  0  0
 10 30  1  0  0  0  0
 13 31  1  0  0  0  0
 18 32  1  0  0  0  0
 19 33  1  0  0  0  0
 20 34  1  0  0  0  0
 21 35  1  0  0  0  0
M  END
> <Gold.Version>
2021.2.0

> <Gold.Id.Protein>
5K6Q|5K6Q_protein|mol2

> <Gold.PLP.Fitness>
17.3799

> <Gold.PLP.PLP>
-11.4461

> <Gold.PLP.part.hbond>
-3.9365

> <Gold.PLP.part.metal>
0.0000

> <Gold.PLP.part.buried>
-4.0244

> <Gold.PLP.part.nonpolar>
-4.5778

> <Gold.PLP.part.repulsive>
0.2371

> <Gold.PLP.ligand.clash>
0.0000

> <Gold.PLP.ligand.torsion>
2.3521

> <Gold.PLP.Chemscore.Hbond>
2.4558

> <Gold.PLP.Chemscore.CHOScore>
0.0000

> <Gold.PLP.Chemscore.Metal>
0.0000

> <Gold.Chemscore.Hbonds>
donor molecule, donor type, donor heavy atom, donor atom, acceptor molecule, acceptor atom, score
      L1  H    10    30       P1  2230  0.46
      L1  H    13    31       P1  2231  1.00
      P1  H  4725  8552       L1    15  1.00

> <Gold.PLP.Chemscore.Internal.Correction>
3.2706

> <Gold.Protein.RotatedTorsions>
[ 5877 1703 1702 1700 ] final -145.81 input   60.01 | X-H torsion
[ 6057 1881 1880 1877 ] final  135.73 input   60.00 | X-H torsion
[ 7193 2255 2254 2251 ] final -172.27 input   60.00 | X-H torsion
[ 7182 2269 2268 2267 ] final    1.54 input   59.99 | X-H torsion
[ 6931 4361 4360 4357 ] final   56.41 input   60.01 | X-H torsion
[ 8180 4471 4470 4468 ] final  174.80 input   60.00 | X-H torsion
[ 8184 4473 4472 4470 ] final -132.06 input   60.00 | X-H torsion
[ 8203 4505 4504 4503 ] final -115.12 input   60.00 | X-H torsion
[ 8212 4507 4506 4504 ] final   34.40 input   60.00 | X-H torsion
[ 8221 4509 4508 4506 ] final  133.76 input   60.00 | X-H torsion

> <Gold.Protein.ActiveResidues>
 TYR305  THR331  LEU332  MET333  LEU349  GLY350  MET351  HIS352  GLY353  ASN358 
 VAL372  ARG373  PHE374  ASP375  ASP376  ARG377  VAL378  THR379  GLY380  LYS381 
 LEU382  PHE385  ASN404  GLY508  GLY509  TRP574  ILE651  PRO652  SER653  GLY654 
 GLY655  FAD702  HOH839  HOH865  HOH881  HOH913  HOH945  HOH958  HOH960  HOH966 
 HOH968 

> <Gold.Protein.RotatedAtoms>
   59.4281  -73.7774   -3.5446 H   0  0  0  0  0  0  0  0  0  0  0  0  # atno 5877 bound_to 1703
   62.0174  -67.8726   -5.6998 H   0  0  0  0  0  0  0  0  0  0  0  0  # atno 6057 bound_to 1881
   70.1499  -81.2032  -11.6118 H   0  0  0  0  0  0  0  0  0  0  0  0  # atno 6931 bound_to 4361
   62.9994  -90.5982   -2.3839 H   0  0  0  0  0  0  0  0  0  0  0  0  # atno 7182 bound_to 2269
   63.2760  -89.6392   -1.0606 H   0  0  0  0  0  0  0  0  0  0  0  0  # atno 7183 bound_to 2269
   61.7224  -89.9716   -1.5330 H   0  0  0  0  0  0  0  0  0  0  0  0  # atno 7184 bound_to 2269
   60.3532  -80.2102   -5.6205 H   0  0  0  0  0  0  0  0  0  0  0  0  # atno 7193 bound_to 2255
   52.3503  -69.6790   -8.4191 H   0  0  0  0  0  0  0  0  0  0  0  0  # atno 8180 bound_to 4471
   50.9105  -67.0396   -8.9957 H   0  0  0  0  0  0  0  0  0  0  0  0  # atno 8184 bound_to 4473
   63.5861  -72.1725  -11.9939 H   0  0  0  0  0  0  0  0  0  0  0  0  # atno 8203 bound_to 4505
   63.6509  -69.9635  -11.6478 H   0  0  0  0  0  0  0  0  0  0  0  0  # atno 8212 bound_to 4507
   63.5151  -71.4200   -7.0563 H   0  0  0  0  0  0  0  0  0  0  0  0  # atno 8221 bound_to 4509
   60.8740  -74.3237   -3.0359 LP  0  0  0  0  0  0  0  0  0  0  0  0  # atno 9612 bound_to 1703
   60.7347  -72.8119   -3.6373 LP  0  0  0  0  0  0  0  0  0  0  0  0  # atno 9613 bound_to 1703
   62.8814  -66.8918   -4.7304 LP  0  0  0  0  0  0  0  0  0  0  0  0  # atno 9616 bound_to 1881
   61.5122  -67.5901   -4.1789 LP  0  0  0  0  0  0  0  0  0  0  0  0  # atno 9617 bound_to 1881
   61.7660  -81.0058   -5.4823 LP  0  0  0  0  0  0  0  0  0  0  0  0  # atno 9661 bound_to 2255
   61.7453  -79.4560   -5.9964 LP  0  0  0  0  0  0  0  0  0  0  0  0  # atno 9662 bound_to 2255
   68.5550  -80.8866  -11.5461 LP  0  0  0  0  0  0  0  0  0  0  0  0  # atno 9687 bound_to 4361
   69.2187  -81.4700  -12.9193 LP  0  0  0  0  0  0  0  0  0  0  0  0  # atno 9688 bound_to 4361
   52.7529  -69.4425   -6.8602 LP  0  0  0  0  0  0  0  0  0  0  0  0  # atno 9695 bound_to 4471
   53.7956  -70.1884   -7.8717 LP  0  0  0  0  0  0  0  0  0  0  0  0  # atno 9696 bound_to 4471
   50.8104  -67.7124   -7.5174 LP  0  0  0  0  0  0  0  0  0  0  0  0  # atno 9697 bound_to 4473
   51.4411  -68.5601   -8.7625 LP  0  0  0  0  0  0  0  0  0  0  0  0  # atno 9698 bound_to 4473
   64.3808  -73.4027  -11.2845 LP  0  0  0  0  0  0  0  0  0  0  0  0  # atno 9706 bound_to 4505
   65.2126  -72.1610  -11.9426 LP  0  0  0  0  0  0  0  0  0  0  0  0  # atno 9707 bound_to 4505
   63.5116  -69.0713  -10.2941 LP  0  0  0  0  0  0  0  0  0  0  0  0  # atno 9708 bound_to 4507
   62.1785  -69.4959  -11.1363 LP  0  0  0  0  0  0  0  0  0  0  0  0  # atno 9709 bound_to 4507
   63.4896  -72.3909   -8.3620 LP  0  0  0  0  0  0  0  0  0  0  0  0  # atno 9710 bound_to 4509
   62.1145  -72.0992   -7.5309 LP  0  0  0  0  0  0  0  0  0  0  0  0  # atno 9711 bound_to 4509

$$$$
