C12H12ClN5O4S|Chlorsulfuron|mol|1|dock21
  -GOLD-   2292221533D 1   1.00000     0.00000
 
 35 36  0  0  0  0  0  0  0  0  1 V2000
   61.8808  -78.3449  -18.2392 C   0  0  0  0  0  0  0  0  0  0  0  0
   62.0159  -77.1696  -17.3055 C   0  0  0  0  0  0  0  0  0  0  0  0
   62.9320  -76.2459  -17.5368 N   0  0  0  0  0  0  0  0  0  0  0  0
   63.0534  -75.2076  -16.7144 C   0  0  0  0  0  0  0  0  0  0  0  0
   62.2528  -75.1005  -15.6605 N   0  0  0  0  0  0  0  0  0  0  0  0
   61.3340  -76.0302  -15.4316 C   0  0  0  0  0  0  0  0  0  0  0  0
   61.2141  -77.0624  -16.2600 N   0  0  0  0  0  0  0  0  0  0  0  0
   60.5167  -75.9248  -14.3584 O   0  0  0  0  0  0  0  0  0  0  0  0
   59.3728  -75.1805  -14.7819 C   0  0  0  0  0  0  0  0  0  0  0  0
   64.0143  -74.2395  -16.9568 N   0  0  0  0  0  0  0  0  0  0  0  0
   65.2818  -74.6030  -17.2354 C   0  0  0  0  0  0  0  0  0  0  0  0
   65.5820  -75.7804  -17.2738 O   0  0  0  0  0  0  0  0  0  0  0  0
   66.2167  -73.6612  -17.4712 N   0  0  0  0  0  0  0  0  0  0  0  0
   67.7984  -74.1007  -17.6887 S   0  0  0  0  0  0  0  0  0  0  0  0
   67.7637  -75.3188  -18.4196 O   0  0  0  0  0  0  0  0  0  0  0  0
   68.4757  -72.9184  -18.0921 O   0  0  0  0  0  0  0  0  0  0  0  0
   68.4536  -74.5110  -16.1054 C   0  0  0  0  0  0  0  0  0  0  0  0
   69.5357  -75.3647  -16.0053 C   0  0  0  0  0  0  0  0  0  0  0  0
   70.0499  -75.6869  -14.7630 C   0  0  0  0  0  0  0  0  0  0  0  0
   69.4818  -75.1557  -13.6204 C   0  0  0  0  0  0  0  0  0  0  0  0
   68.3990  -74.3021  -13.7191 C   0  0  0  0  0  0  0  0  0  0  0  0
   67.8882  -73.9742  -14.9622 C   0  0  0  0  0  0  0  0  0  0  0  0
   66.5288  -72.9018  -15.0870 Cl  0  0  0  0  0  0  0  0  0  0  0  0
   62.5236  -79.1561  -17.8976 H   0  0  0  0  0  0  0  0  0  0  0  0
   60.8445  -78.6826  -18.2505 H   0  0  0  0  0  0  0  0  0  0  0  0
   62.1766  -78.0459  -19.2448 H   0  0  0  0  0  0  0  0  0  0  0  0
   58.6819  -75.0693  -13.9462 H   0  0  0  0  0  0  0  0  0  0  0  0
   59.6874  -74.1956  -15.1269 H   0  0  0  0  0  0  0  0  0  0  0  0
   58.8764  -75.7090  -15.5958 H   0  0  0  0  0  0  0  0  0  0  0  0
   63.7747  -73.3000  -16.9261 H   0  0  0  0  0  0  0  0  0  0  0  0
   65.9629  -72.7260  -17.5136 H   0  0  0  0  0  0  0  0  0  0  0  0
   69.9796  -75.7806  -16.8977 H   0  0  0  0  0  0  0  0  0  0  0  0
   70.8956  -76.3540  -14.6852 H   0  0  0  0  0  0  0  0  0  0  0  0
   69.8837  -75.4080  -12.6502 H   0  0  0  0  0  0  0  0  0  0  0  0
   67.9547  -73.8877  -12.8262 H   0  0  0  0  0  0  0  0  0  0  0  0
  1  2  1  0  0  0  0
  2  3  2  0  0  0  0
  3  4  1  0  0  0  0
  4  5  2  0  0  0  0
  5  6  1  0  0  0  0
  6  7  2  0  0  0  0
  2  7  1  0  0  0  0
  6  8  1  0  0  0  0
  8  9  1  0  0  0  0
  4 10  1  0  0  0  0
 10 11  1  0  0  0  0
 11 12  2  0  0  0  0
 11 13  1  0  0  0  0
 13 14  1  0  0  0  0
 14 15  2  0  0  0  0
 14 16  2  0  0  0  0
 14 17  1  0  0  0  0
 17 18  2  0  0  0  0
 18 19  1  0  0  0  0
 19 20  2  0  0  0  0
 20 21  1  0  0  0  0
 21 22  2  0  0  0  0
 17 22  1  0  0  0  0
 22 23  1  0  0  0  0
  1 24  1  0  0  0  0
  1 25  1  0  0  0  0
  1 26  1  0  0  0  0
  9 27  1  0  0  0  0
  9 28  1  0  0  0  0
  9 29  1  0  0  0  0
 10 30  1  0  0  0  0
 13 31  1  0  0  0  0
 18 32  1  0  0  0  0
 19 33  1  0  0  0  0
 20 34  1  0  0  0  0
 21 35  1  0  0  0  0
M  END
> <Gold.Version>
2021.2.0

> <Gold.Id.Protein>
5K6Q|5K6Q_protein|mol2

> <Gold.PLP.Fitness>
31.9245

> <Gold.PLP.PLP>
-30.7414

> <Gold.PLP.part.hbond>
-3.0000

> <Gold.PLP.part.metal>
0.0000

> <Gold.PLP.part.buried>
-2.5363

> <Gold.PLP.part.nonpolar>
-26.1094

> <Gold.PLP.part.repulsive>
0.5922

> <Gold.PLP.ligand.clash>
0.0000

> <Gold.PLP.ligand.torsion>
2.5078

> <Gold.PLP.Chemscore.Hbond>
0.9760

> <Gold.PLP.Chemscore.CHOScore>
0.0000

> <Gold.PLP.Chemscore.Metal>
0.0000

> <Gold.Chemscore.Hbonds>
donor molecule, donor type, donor heavy atom, donor atom, acceptor molecule, acceptor atom, score
      L1  H    10    30       P1  3265  0.98

> <Gold.PLP.Chemscore.Internal.Correction>
3.2706

> <Gold.Protein.RotatedTorsions>
[ 5877 1703 1702 1700 ] final -142.11 input   60.01 | X-H torsion
[ 6057 1881 1880 1877 ] final   40.48 input   60.00 | X-H torsion
[ 7193 2255 2254 2251 ] final  -79.78 input   60.00 | X-H torsion
[ 7182 2269 2268 2267 ] final  152.11 input   59.99 | X-H torsion
[ 6931 4361 4360 4357 ] final -132.82 input   60.01 | X-H torsion
[ 8180 4471 4470 4468 ] final  -15.98 input   60.00 | X-H torsion
[ 8184 4473 4472 4470 ] final  155.53 input   60.00 | X-H torsion
[ 8203 4505 4504 4503 ] final   26.25 input   60.00 | X-H torsion
[ 8212 4507 4506 4504 ] final   -7.73 input   60.00 | X-H torsion
[ 8221 4509 4508 4506 ] final  -97.25 input   60.00 | X-H torsion

> <Gold.Protein.ActiveResidues>
 TYR305  THR331  LEU332  MET333  LEU349  GLY350  MET351  HIS352  GLY353  ASN358 
 VAL372  ARG373  PHE374  ASP375  ASP376  ARG377  VAL378  THR379  GLY380  LYS381 
 LEU382  PHE385  ASN404  GLY508  GLY509  TRP574  ILE651  PRO652  SER653  GLY654 
 GLY655  FAD702  HOH839  HOH865  HOH881  HOH913  HOH945  HOH958  HOH960  HOH966 
 HOH968 

> <Gold.Protein.RotatedAtoms>
   59.4249  -73.7211   -3.5666 H   0  0  0  0  0  0  0  0  0  0  0  0  # atno 5877 bound_to 1703
   62.9304  -67.0168   -5.1101 H   0  0  0  0  0  0  0  0  0  0  0  0  # atno 6057 bound_to 1881
   68.5412  -81.2270  -12.5578 H   0  0  0  0  0  0  0  0  0  0  0  0  # atno 6931 bound_to 4361
   62.8164  -89.5149   -0.8941 H   0  0  0  0  0  0  0  0  0  0  0  0  # atno 7182 bound_to 2269
   61.7726  -90.2670   -1.9391 H   0  0  0  0  0  0  0  0  0  0  0  0  # atno 7183 bound_to 2269
   63.4095  -90.4271   -2.1446 H   0  0  0  0  0  0  0  0  0  0  0  0  # atno 7184 bound_to 2269
   61.3147  -79.3364   -5.9959 H   0  0  0  0  0  0  0  0  0  0  0  0  # atno 7193 bound_to 2255
   53.6816  -69.9362   -7.1398 H   0  0  0  0  0  0  0  0  0  0  0  0  # atno 8180 bound_to 4471
   50.6667  -67.0849   -7.9179 H   0  0  0  0  0  0  0  0  0  0  0  0  # atno 8184 bound_to 4473
   65.3179  -72.4485  -11.7765 H   0  0  0  0  0  0  0  0  0  0  0  0  # atno 8203 bound_to 4505
   64.0250  -69.6837  -11.1635 H   0  0  0  0  0  0  0  0  0  0  0  0  # atno 8212 bound_to 4507
   62.1292  -72.1819   -7.6520 H   0  0  0  0  0  0  0  0  0  0  0  0  # atno 8221 bound_to 4509
   60.8240  -74.3583   -3.0333 LP  0  0  0  0  0  0  0  0  0  0  0  0  # atno 9612 bound_to 1703
   60.7881  -72.8339   -3.6178 LP  0  0  0  0  0  0  0  0  0  0  0  0  # atno 9613 bound_to 1703
   61.7789  -67.3401   -4.0066 LP  0  0  0  0  0  0  0  0  0  0  0  0  # atno 9616 bound_to 1881
   61.6954  -68.0036   -5.4964 LP  0  0  0  0  0  0  0  0  0  0  0  0  # atno 9617 bound_to 1881
   60.4582  -80.6257   -5.4939 LP  0  0  0  0  0  0  0  0  0  0  0  0  # atno 9661 bound_to 2255
   62.0848  -80.7161   -5.6068 LP  0  0  0  0  0  0  0  0  0  0  0  0  # atno 9662 bound_to 2255
   70.1420  -81.4563  -12.3764 LP  0  0  0  0  0  0  0  0  0  0  0  0  # atno 9687 bound_to 4361
   69.2517  -80.8763  -11.1364 LP  0  0  0  0  0  0  0  0  0  0  0  0  # atno 9688 bound_to 4361
   53.0157  -70.0377   -8.6212 LP  0  0  0  0  0  0  0  0  0  0  0  0  # atno 9695 bound_to 4471
   52.1922  -69.3341   -7.3991 LP  0  0  0  0  0  0  0  0  0  0  0  0  # atno 9696 bound_to 4471
   51.2734  -68.5913   -8.0211 LP  0  0  0  0  0  0  0  0  0  0  0  0  # atno 9697 bound_to 4473
   51.2236  -67.6356   -9.3443 LP  0  0  0  0  0  0  0  0  0  0  0  0  # atno 9698 bound_to 4473
   63.8111  -71.9376  -12.1185 LP  0  0  0  0  0  0  0  0  0  0  0  0  # atno 9706 bound_to 4505
   64.0383  -73.3481  -11.3275 LP  0  0  0  0  0  0  0  0  0  0  0  0  # atno 9707 bound_to 4505
   62.8374  -69.0032  -10.2834 LP  0  0  0  0  0  0  0  0  0  0  0  0  # atno 9708 bound_to 4507
   62.4759  -69.8457  -11.6348 LP  0  0  0  0  0  0  0  0  0  0  0  0  # atno 9709 bound_to 4507
   63.3890  -71.3985   -6.9831 LP  0  0  0  0  0  0  0  0  0  0  0  0  # atno 9710 bound_to 4509
   63.6108  -72.3243   -8.3099 LP  0  0  0  0  0  0  0  0  0  0  0  0  # atno 9711 bound_to 4509

$$$$
