C12H12ClN5O4S|Chlorsulfuron|mol|1|dock30
  -GOLD-   2292221533D 1   1.00000     0.00000
 
 35 36  0  0  0  0  0  0  0  0  1 V2000
   66.9351  -73.5966  -17.7121 C   0  0  0  0  0  0  0  0  0  0  0  0
   66.7811  -74.0131  -16.2719 C   0  0  0  0  0  0  0  0  0  0  0  0
   65.5883  -73.9927  -15.7038 N   0  0  0  0  0  0  0  0  0  0  0  0
   65.4495  -74.3598  -14.4329 C   0  0  0  0  0  0  0  0  0  0  0  0
   66.5112  -74.7467  -13.7357 N   0  0  0  0  0  0  0  0  0  0  0  0
   67.7075  -74.7658  -14.3098 C   0  0  0  0  0  0  0  0  0  0  0  0
   67.8388  -74.4031  -15.5814 N   0  0  0  0  0  0  0  0  0  0  0  0
   68.7918  -75.1590  -13.6024 O   0  0  0  0  0  0  0  0  0  0  0  0
   69.9411  -74.7458  -14.3443 C   0  0  0  0  0  0  0  0  0  0  0  0
   64.1989  -74.3379  -13.8374 N   0  0  0  0  0  0  0  0  0  0  0  0
   63.1227  -74.7869  -14.5132 C   0  0  0  0  0  0  0  0  0  0  0  0
   63.2494  -75.2109  -15.6455 O   0  0  0  0  0  0  0  0  0  0  0  0
   61.9059  -74.7656  -13.9339 N   0  0  0  0  0  0  0  0  0  0  0  0
   60.5661  -75.1981  -14.8057 S   0  0  0  0  0  0  0  0  0  0  0  0
   59.4501  -74.8276  -14.0079 O   0  0  0  0  0  0  0  0  0  0  0  0
   60.8105  -74.7562  -16.1340 O   0  0  0  0  0  0  0  0  0  0  0  0
   60.5347  -76.9580  -14.8849 C   0  0  0  0  0  0  0  0  0  0  0  0
   61.1603  -77.6142  -15.9279 C   0  0  0  0  0  0  0  0  0  0  0  0
   61.1357  -78.9951  -15.9903 C   0  0  0  0  0  0  0  0  0  0  0  0
   60.4849  -79.7202  -15.0098 C   0  0  0  0  0  0  0  0  0  0  0  0
   59.8583  -79.0650  -13.9663 C   0  0  0  0  0  0  0  0  0  0  0  0
   59.8882  -77.6836  -13.8999 C   0  0  0  0  0  0  0  0  0  0  0  0
   59.1020  -76.8601  -12.5893 Cl  0  0  0  0  0  0  0  0  0  0  0  0
   67.1305  -72.5255  -17.7617 H   0  0  0  0  0  0  0  0  0  0  0  0
   67.7678  -74.1390  -18.1601 H   0  0  0  0  0  0  0  0  0  0  0  0
   66.0184  -73.8242  -18.2561 H   0  0  0  0  0  0  0  0  0  0  0  0
   70.8440  -75.0424  -13.8105 H   0  0  0  0  0  0  0  0  0  0  0  0
   69.9282  -75.2176  -15.3268 H   0  0  0  0  0  0  0  0  0  0  0  0
   69.9277  -73.6622  -14.4615 H   0  0  0  0  0  0  0  0  0  0  0  0
   64.0977  -73.9995  -12.9339 H   0  0  0  0  0  0  0  0  0  0  0  0
   61.8152  -74.4970  -13.0063 H   0  0  0  0  0  0  0  0  0  0  0  0
   61.6683  -77.0481  -16.6946 H   0  0  0  0  0  0  0  0  0  0  0  0
   61.6247  -79.5075  -16.8055 H   0  0  0  0  0  0  0  0  0  0  0  0
   60.4658  -80.7990  -15.0592 H   0  0  0  0  0  0  0  0  0  0  0  0
   59.3493  -79.6317  -13.2007 H   0  0  0  0  0  0  0  0  0  0  0  0
  1  2  1  0  0  0  0
  2  3  2  0  0  0  0
  3  4  1  0  0  0  0
  4  5  2  0  0  0  0
  5  6  1  0  0  0  0
  6  7  2  0  0  0  0
  2  7  1  0  0  0  0
  6  8  1  0  0  0  0
  8  9  1  0  0  0  0
  4 10  1  0  0  0  0
 10 11  1  0  0  0  0
 11 12  2  0  0  0  0
 11 13  1  0  0  0  0
 13 14  1  0  0  0  0
 14 15  2  0  0  0  0
 14 16  2  0  0  0  0
 14 17  1  0  0  0  0
 17 18  2  0  0  0  0
 18 19  1  0  0  0  0
 19 20  2  0  0  0  0
 20 21  1  0  0  0  0
 21 22  2  0  0  0  0
 17 22  1  0  0  0  0
 22 23  1  0  0  0  0
  1 24  1  0  0  0  0
  1 25  1  0  0  0  0
  1 26  1  0  0  0  0
  9 27  1  0  0  0  0
  9 28  1  0  0  0  0
  9 29  1  0  0  0  0
 10 30  1  0  0  0  0
 13 31  1  0  0  0  0
 18 32  1  0  0  0  0
 19 33  1  0  0  0  0
 20 34  1  0  0  0  0
 21 35  1  0  0  0  0
M  END
> <Gold.Version>
2021.2.0

> <Gold.Id.Protein>
5K6Q|5K6Q_protein|mol2

> <Gold.PLP.Fitness>
32.3678

> <Gold.PLP.PLP>
-24.4685

> <Gold.PLP.part.hbond>
-4.4397

> <Gold.PLP.part.metal>
0.0000

> <Gold.PLP.part.buried>
-3.1735

> <Gold.PLP.part.nonpolar>
-18.3316

> <Gold.PLP.part.repulsive>
0.9479

> <Gold.PLP.ligand.clash>
1.4572

> <Gold.PLP.ligand.torsion>
1.9926

> <Gold.PLP.Chemscore.Hbond>
3.3570

> <Gold.PLP.Chemscore.CHOScore>
0.0000

> <Gold.PLP.Chemscore.Metal>
0.0000

> <Gold.Chemscore.Hbonds>
donor molecule, donor type, donor heavy atom, donor atom, acceptor molecule, acceptor atom, score
      L1  H    10    30       P1  4505  0.43
      L1  H    13    31       P1  2222  0.93
      P1  H  2203  7120       L1    15  1.00
      P1  H  2239  7163       L1     8  1.00

> <Gold.PLP.Chemscore.Internal.Correction>
3.2706

> <Gold.Protein.RotatedTorsions>
[ 5877 1703 1702 1700 ] final  -37.66 input   60.01 | X-H torsion
[ 6057 1881 1880 1877 ] final  -56.54 input   60.00 | X-H torsion
[ 7193 2255 2254 2251 ] final  153.20 input   60.00 | X-H torsion
[ 7182 2269 2268 2267 ] final   -5.22 input   59.99 | X-H torsion
[ 6931 4361 4360 4357 ] final  -85.73 input   60.01 | X-H torsion
[ 8180 4471 4470 4468 ] final    8.78 input   60.00 | X-H torsion
[ 8184 4473 4472 4470 ] final  -34.70 input   60.00 | X-H torsion
[ 8203 4505 4504 4503 ] final  -32.43 input   60.00 | X-H torsion
[ 8212 4507 4506 4504 ] final  -14.14 input   60.00 | X-H torsion
[ 8221 4509 4508 4506 ] final  139.90 input   60.00 | X-H torsion

> <Gold.Protein.ActiveResidues>
 TYR305  THR331  LEU332  MET333  LEU349  GLY350  MET351  HIS352  GLY353  ASN358 
 VAL372  ARG373  PHE374  ASP375  ASP376  ARG377  VAL378  THR379  GLY380  LYS381 
 LEU382  PHE385  ASN404  GLY508  GLY509  TRP574  ILE651  PRO652  SER653  GLY654 
 GLY655  FAD702  HOH839  HOH865  HOH881  HOH913  HOH945  HOH958  HOH960  HOH966 
 HOH968 

> <Gold.Protein.RotatedAtoms>
   60.5524  -72.7703   -3.6890 H   0  0  0  0  0  0  0  0  0  0  0  0  # atno 5877 bound_to 1703
   62.0881  -67.1296   -3.9941 H   0  0  0  0  0  0  0  0  0  0  0  0  # atno 6057 bound_to 1881
   68.4125  -80.9710  -11.8668 H   0  0  0  0  0  0  0  0  0  0  0  0  # atno 6931 bound_to 4361
   62.8914  -90.6171   -2.4110 H   0  0  0  0  0  0  0  0  0  0  0  0  # atno 7182 bound_to 2269
   63.3586  -89.6848   -1.1227 H   0  0  0  0  0  0  0  0  0  0  0  0  # atno 7183 bound_to 2269
   61.7478  -89.9070   -1.4439 H   0  0  0  0  0  0  0  0  0  0  0  0  # atno 7184 bound_to 2269
   60.5242  -80.7162   -5.4671 H   0  0  0  0  0  0  0  0  0  0  0  0  # atno 7193 bound_to 2255
   53.4179  -69.7518   -6.8996 H   0  0  0  0  0  0  0  0  0  0  0  0  # atno 8180 bound_to 4471
   51.4322  -68.3438   -9.0611 H   0  0  0  0  0  0  0  0  0  0  0  0  # atno 8184 bound_to 4473
   64.7617  -71.8194  -12.1462 H   0  0  0  0  0  0  0  0  0  0  0  0  # atno 8203 bound_to 4505
   64.0425  -69.6286  -11.0761 H   0  0  0  0  0  0  0  0  0  0  0  0  # atno 8212 bound_to 4507
   63.4280  -71.4053   -7.0087 H   0  0  0  0  0  0  0  0  0  0  0  0  # atno 8221 bound_to 4509
   59.4582  -73.9554   -3.4734 LP  0  0  0  0  0  0  0  0  0  0  0  0  # atno 9612 bound_to 1703
   61.0183  -74.1944   -3.0544 LP  0  0  0  0  0  0  0  0  0  0  0  0  # atno 9613 bound_to 1703
   61.4699  -68.0338   -5.1976 LP  0  0  0  0  0  0  0  0  0  0  0  0  # atno 9616 bound_to 1881
   62.8525  -67.1962   -5.4292 LP  0  0  0  0  0  0  0  0  0  0  0  0  # atno 9617 bound_to 1881
   62.1392  -80.6211   -5.6432 LP  0  0  0  0  0  0  0  0  0  0  0  0  # atno 9661 bound_to 2255
   61.1998  -79.3311   -5.9900 LP  0  0  0  0  0  0  0  0  0  0  0  0  # atno 9662 bound_to 2255
   69.5739  -81.5175  -12.8672 LP  0  0  0  0  0  0  0  0  0  0  0  0  # atno 9687 bound_to 4361
   69.9493  -81.0729  -11.3414 LP  0  0  0  0  0  0  0  0  0  0  0  0  # atno 9688 bound_to 4361
   53.3722  -70.1595   -8.4743 LP  0  0  0  0  0  0  0  0  0  0  0  0  # atno 9695 bound_to 4471
   52.1012  -69.3980   -7.7879 LP  0  0  0  0  0  0  0  0  0  0  0  0  # atno 9696 bound_to 4471
   50.7784  -66.9034   -8.6793 LP  0  0  0  0  0  0  0  0  0  0  0  0  # atno 9697 bound_to 4473
   50.9477  -68.0556   -7.5346 LP  0  0  0  0  0  0  0  0  0  0  0  0  # atno 9698 bound_to 4473
   63.4554  -72.6887  -11.7150 LP  0  0  0  0  0  0  0  0  0  0  0  0  # atno 9706 bound_to 4505
   64.9541  -73.2305  -11.3588 LP  0  0  0  0  0  0  0  0  0  0  0  0  # atno 9707 bound_to 4505
   62.7388  -69.0169  -10.3183 LP  0  0  0  0  0  0  0  0  0  0  0  0  # atno 9708 bound_to 4507
   62.5570  -69.8874  -11.6879 LP  0  0  0  0  0  0  0  0  0  0  0  0  # atno 9709 bound_to 4507
   63.5738  -72.3464   -8.3282 LP  0  0  0  0  0  0  0  0  0  0  0  0  # atno 9710 bound_to 4509
   62.1180  -72.1585   -7.6126 LP  0  0  0  0  0  0  0  0  0  0  0  0  # atno 9711 bound_to 4509

$$$$
