C12H12ClN5O4S|Chlorsulfuron|mol|1|dock34
  -GOLD-   2292221543D 1   1.00000     0.00000
 
 35 36  0  0  0  0  0  0  0  0  1 V2000
   63.5291  -74.6053  -18.1010 C   0  0  0  0  0  0  0  0  0  0  0  0
   62.6770  -75.2319  -17.0275 C   0  0  0  0  0  0  0  0  0  0  0  0
   63.1634  -76.2139  -16.2892 N   0  0  0  0  0  0  0  0  0  0  0  0
   62.4136  -76.7688  -15.3411 C   0  0  0  0  0  0  0  0  0  0  0  0
   61.1753  -76.3346  -15.1374 N   0  0  0  0  0  0  0  0  0  0  0  0
   60.6904  -75.3482  -15.8808 C   0  0  0  0  0  0  0  0  0  0  0  0
   61.4465  -74.7943  -16.8229 N   0  0  0  0  0  0  0  0  0  0  0  0
   59.4289  -74.9035  -15.6765 O   0  0  0  0  0  0  0  0  0  0  0  0
   59.5254  -73.5085  -15.3820 C   0  0  0  0  0  0  0  0  0  0  0  0
   62.9236  -77.7986  -14.5675 N   0  0  0  0  0  0  0  0  0  0  0  0
   63.6334  -78.7878  -15.1455 C   0  0  0  0  0  0  0  0  0  0  0  0
   63.8260  -78.7764  -16.3458 O   0  0  0  0  0  0  0  0  0  0  0  0
   64.1296  -79.7898  -14.3929 N   0  0  0  0  0  0  0  0  0  0  0  0
   64.8925  -81.0692  -15.1165 S   0  0  0  0  0  0  0  0  0  0  0  0
   66.1006  -80.5462  -15.6513 O   0  0  0  0  0  0  0  0  0  0  0  0
   64.7996  -82.1461  -14.1939 O   0  0  0  0  0  0  0  0  0  0  0  0
   63.9199  -81.5448  -16.5066 C   0  0  0  0  0  0  0  0  0  0  0  0
   64.5164  -81.7157  -17.7414 C   0  0  0  0  0  0  0  0  0  0  0  0
   63.7535  -82.0888  -18.8324 C   0  0  0  0  0  0  0  0  0  0  0  0
   62.3936  -82.2906  -18.6888 C   0  0  0  0  0  0  0  0  0  0  0  0
   61.7957  -82.1196  -17.4543 C   0  0  0  0  0  0  0  0  0  0  0  0
   62.5597  -81.7526  -16.3610 C   0  0  0  0  0  0  0  0  0  0  0  0
   61.8096  -81.5382  -14.8101 Cl  0  0  0  0  0  0  0  0  0  0  0  0
   63.3824  -75.1397  -19.0395 H   0  0  0  0  0  0  0  0  0  0  0  0
   63.2429  -73.5613  -18.2287 H   0  0  0  0  0  0  0  0  0  0  0  0
   64.5783  -74.6616  -17.8110 H   0  0  0  0  0  0  0  0  0  0  0  0
   58.5281  -73.1039  -15.2090 H   0  0  0  0  0  0  0  0  0  0  0  0
   60.1348  -73.3669  -14.4895 H   0  0  0  0  0  0  0  0  0  0  0  0
   59.9868  -72.9907  -16.2228 H   0  0  0  0  0  0  0  0  0  0  0  0
   62.7699  -77.8078  -13.6097 H   0  0  0  0  0  0  0  0  0  0  0  0
   64.0399  -79.7614  -13.4276 H   0  0  0  0  0  0  0  0  0  0  0  0
   65.5788  -81.5574  -17.8543 H   0  0  0  0  0  0  0  0  0  0  0  0
   64.2200  -82.2222  -19.7972 H   0  0  0  0  0  0  0  0  0  0  0  0
   61.7981  -82.5818  -19.5415 H   0  0  0  0  0  0  0  0  0  0  0  0
   60.7331  -82.2766  -17.3424 H   0  0  0  0  0  0  0  0  0  0  0  0
  1  2  1  0  0  0  0
  2  3  2  0  0  0  0
  3  4  1  0  0  0  0
  4  5  2  0  0  0  0
  5  6  1  0  0  0  0
  6  7  2  0  0  0  0
  2  7  1  0  0  0  0
  6  8  1  0  0  0  0
  8  9  1  0  0  0  0
  4 10  1  0  0  0  0
 10 11  1  0  0  0  0
 11 12  2  0  0  0  0
 11 13  1  0  0  0  0
 13 14  1  0  0  0  0
 14 15  2  0  0  0  0
 14 16  2  0  0  0  0
 14 17  1  0  0  0  0
 17 18  2  0  0  0  0
 18 19  1  0  0  0  0
 19 20  2  0  0  0  0
 20 21  1  0  0  0  0
 21 22  2  0  0  0  0
 17 22  1  0  0  0  0
 22 23  1  0  0  0  0
  1 24  1  0  0  0  0
  1 25  1  0  0  0  0
  1 26  1  0  0  0  0
  9 27  1  0  0  0  0
  9 28  1  0  0  0  0
  9 29  1  0  0  0  0
 10 30  1  0  0  0  0
 13 31  1  0  0  0  0
 18 32  1  0  0  0  0
 19 33  1  0  0  0  0
 20 34  1  0  0  0  0
 21 35  1  0  0  0  0
M  END
> <Gold.Version>
2021.2.0

> <Gold.Id.Protein>
5K6Q|5K6Q_protein|mol2

> <Gold.PLP.Fitness>
20.0761

> <Gold.PLP.PLP>
-14.0792

> <Gold.PLP.part.hbond>
-6.3335

> <Gold.PLP.part.metal>
0.0000

> <Gold.PLP.part.buried>
-1.9477

> <Gold.PLP.part.nonpolar>
-8.0951

> <Gold.PLP.part.repulsive>
0.5602

> <Gold.PLP.ligand.clash>
0.0000

> <Gold.PLP.ligand.torsion>
2.0191

> <Gold.PLP.Chemscore.Hbond>
2.2549

> <Gold.PLP.Chemscore.CHOScore>
0.0000

> <Gold.PLP.Chemscore.Metal>
0.0000

> <Gold.Chemscore.Hbonds>
donor molecule, donor type, donor heavy atom, donor atom, acceptor molecule, acceptor atom, score
      L1  H    10    30       P1  2230  0.73
      L1  H    13    31       P1  2231  0.84
      P1  H  2242  7198       L1    15  0.42
      P1  H  4725  8552       L1    16  0.26

> <Gold.PLP.Chemscore.Internal.Correction>
3.2706

> <Gold.Protein.RotatedTorsions>
[ 5877 1703 1702 1700 ] final   15.69 input   60.01 | X-H torsion
[ 6057 1881 1880 1877 ] final  151.10 input   60.00 | X-H torsion
[ 7193 2255 2254 2251 ] final   44.08 input   60.00 | X-H torsion
[ 7182 2269 2268 2267 ] final   40.54 input   59.99 | X-H torsion
[ 6931 4361 4360 4357 ] final   95.99 input   60.01 | X-H torsion
[ 8180 4471 4470 4468 ] final  102.77 input   60.00 | X-H torsion
[ 8184 4473 4472 4470 ] final  -29.36 input   60.00 | X-H torsion
[ 8203 4505 4504 4503 ] final  119.77 input   60.00 | X-H torsion
[ 8212 4507 4506 4504 ] final   50.69 input   60.00 | X-H torsion
[ 8221 4509 4508 4506 ] final  -52.03 input   60.00 | X-H torsion

> <Gold.Protein.ActiveResidues>
 TYR305  THR331  LEU332  MET333  LEU349  GLY350  MET351  HIS352  GLY353  ASN358 
 VAL372  ARG373  PHE374  ASP375  ASP376  ARG377  VAL378  THR379  GLY380  LYS381 
 LEU382  PHE385  ASN404  GLY508  GLY509  TRP574  ILE651  PRO652  SER653  GLY654 
 GLY655  FAD702  HOH839  HOH865  HOH881  HOH913  HOH945  HOH958  HOH960  HOH966 
 HOH968 

> <Gold.Protein.RotatedAtoms>
   61.1856  -73.2297   -3.3818 H   0  0  0  0  0  0  0  0  0  0  0  0  # atno 5877 bound_to 1703
   61.8136  -67.9637   -5.5864 H   0  0  0  0  0  0  0  0  0  0  0  0  # atno 6057 bound_to 1881
   70.1997  -81.4128  -12.2080 H   0  0  0  0  0  0  0  0  0  0  0  0  # atno 6931 bound_to 4361
   63.4896  -90.3596   -2.0509 H   0  0  0  0  0  0  0  0  0  0  0  0  # atno 7182 bound_to 2269
   62.6762  -89.5075   -0.8849 H   0  0  0  0  0  0  0  0  0  0  0  0  # atno 7183 bound_to 2269
   61.8321  -90.3419   -2.0419 H   0  0  0  0  0  0  0  0  0  0  0  0  # atno 7184 bound_to 2269
   62.0445  -80.7608   -5.5859 H   0  0  0  0  0  0  0  0  0  0  0  0  # atno 7193 bound_to 2255
   52.2070  -69.3340   -7.3834 H   0  0  0  0  0  0  0  0  0  0  0  0  # atno 8180 bound_to 4471
   51.4396  -68.4029   -8.9972 H   0  0  0  0  0  0  0  0  0  0  0  0  # atno 8184 bound_to 4473
   64.4642  -73.3920  -11.2847 H   0  0  0  0  0  0  0  0  0  0  0  0  # atno 8203 bound_to 4505
   63.4150  -70.0137  -11.7583 H   0  0  0  0  0  0  0  0  0  0  0  0  # atno 8212 bound_to 4507
   62.4890  -72.4953   -8.1911 H   0  0  0  0  0  0  0  0  0  0  0  0  # atno 8221 bound_to 4509
   59.6001  -73.1655   -3.7425 LP  0  0  0  0  0  0  0  0  0  0  0  0  # atno 9612 bound_to 1703
   60.2388  -74.5217   -3.0947 LP  0  0  0  0  0  0  0  0  0  0  0  0  # atno 9613 bound_to 1703
   62.9318  -66.9552   -4.9691 LP  0  0  0  0  0  0  0  0  0  0  0  0  # atno 9616 bound_to 1881
   61.6670  -67.4349   -4.0543 LP  0  0  0  0  0  0  0  0  0  0  0  0  # atno 9617 bound_to 1881
   61.3779  -79.3364   -6.0039 LP  0  0  0  0  0  0  0  0  0  0  0  0  # atno 9661 bound_to 2255
   60.4301  -80.5709   -5.5097 LP  0  0  0  0  0  0  0  0  0  0  0  0  # atno 9662 bound_to 2255
   69.0730  -80.8563  -11.1741 LP  0  0  0  0  0  0  0  0  0  0  0  0  # atno 9687 bound_to 4361
   68.6506  -81.2892  -12.6909 LP  0  0  0  0  0  0  0  0  0  0  0  0  # atno 9688 bound_to 4361
   53.6959  -69.9482   -7.1507 LP  0  0  0  0  0  0  0  0  0  0  0  0  # atno 9695 bound_to 4471
   52.9970  -70.0300   -8.6243 LP  0  0  0  0  0  0  0  0  0  0  0  0  # atno 9696 bound_to 4471
   50.8057  -66.9230   -8.7606 LP  0  0  0  0  0  0  0  0  0  0  0  0  # atno 9697 bound_to 4473
   50.9130  -67.9766   -7.5177 LP  0  0  0  0  0  0  0  0  0  0  0  0  # atno 9698 bound_to 4473
   65.1681  -72.0993  -11.9785 LP  0  0  0  0  0  0  0  0  0  0  0  0  # atno 9706 bound_to 4505
   63.5410  -72.2363  -11.9628 LP  0  0  0  0  0  0  0  0  0  0  0  0  # atno 9707 bound_to 4505
   63.7347  -69.1648  -10.4073 LP  0  0  0  0  0  0  0  0  0  0  0  0  # atno 9708 bound_to 4507
   62.1929  -69.3518  -10.9118 LP  0  0  0  0  0  0  0  0  0  0  0  0  # atno 9709 bound_to 4507
   62.6764  -71.5103   -6.9095 LP  0  0  0  0  0  0  0  0  0  0  0  0  # atno 9710 bound_to 4509
   63.9610  -71.8968   -7.8406 LP  0  0  0  0  0  0  0  0  0  0  0  0  # atno 9711 bound_to 4509

$$$$
