C12H12ClN5O4S|Chlorsulfuron|mol|1|dock4
  -GOLD-   2292221533D 1   1.00000     0.00000
 
 35 36  0  0  0  0  0  0  0  0  1 V2000
   66.7157  -73.4002  -13.9388 C   0  0  0  0  0  0  0  0  0  0  0  0
   66.1022  -74.6007  -14.6123 C   0  0  0  0  0  0  0  0  0  0  0  0
   65.0816  -75.2227  -14.0489 N   0  0  0  0  0  0  0  0  0  0  0  0
   64.5382  -76.2825  -14.6411 C   0  0  0  0  0  0  0  0  0  0  0  0
   65.0226  -76.7146  -15.7995 N   0  0  0  0  0  0  0  0  0  0  0  0
   66.0477  -76.0872  -16.3622 C   0  0  0  0  0  0  0  0  0  0  0  0
   66.5827  -75.0257  -15.7682 N   0  0  0  0  0  0  0  0  0  0  0  0
   66.5444  -76.5250  -17.5422 O   0  0  0  0  0  0  0  0  0  0  0  0
   66.4227  -75.4435  -18.4683 C   0  0  0  0  0  0  0  0  0  0  0  0
   63.4685  -76.9348  -14.0500 N   0  0  0  0  0  0  0  0  0  0  0  0
   62.3919  -77.2697  -14.7885 C   0  0  0  0  0  0  0  0  0  0  0  0
   62.3595  -76.9992  -15.9732 O   0  0  0  0  0  0  0  0  0  0  0  0
   61.3511  -77.9042  -14.2134 N   0  0  0  0  0  0  0  0  0  0  0  0
   59.9776  -78.2034  -15.0887 S   0  0  0  0  0  0  0  0  0  0  0  0
   60.4188  -78.5374  -16.3974 O   0  0  0  0  0  0  0  0  0  0  0  0
   59.1632  -79.0227  -14.2611 O   0  0  0  0  0  0  0  0  0  0  0  0
   59.1128  -76.6767  -15.2501 C   0  0  0  0  0  0  0  0  0  0  0  0
   59.3255  -75.8755  -16.3558 C   0  0  0  0  0  0  0  0  0  0  0  0
   58.6472  -74.6775  -16.4826 C   0  0  0  0  0  0  0  0  0  0  0  0
   57.7562  -74.2802  -15.5034 C   0  0  0  0  0  0  0  0  0  0  0  0
   57.5429  -75.0805  -14.3967 C   0  0  0  0  0  0  0  0  0  0  0  0
   58.2165  -76.2824  -14.2725 C   0  0  0  0  0  0  0  0  0  0  0  0
   57.9488  -77.2883  -12.8831 Cl  0  0  0  0  0  0  0  0  0  0  0  0
   67.5158  -73.7258  -13.2741 H   0  0  0  0  0  0  0  0  0  0  0  0
   67.1221  -72.7279  -14.6944 H   0  0  0  0  0  0  0  0  0  0  0  0
   65.9529  -72.8786  -13.3607 H   0  0  0  0  0  0  0  0  0  0  0  0
   66.8123  -75.7507  -19.4388 H   0  0  0  0  0  0  0  0  0  0  0  0
   65.3730  -75.1677  -18.5688 H   0  0  0  0  0  0  0  0  0  0  0  0
   66.9899  -74.5872  -18.1035 H   0  0  0  0  0  0  0  0  0  0  0  0
   63.4943  -77.1505  -13.1046 H   0  0  0  0  0  0  0  0  0  0  0  0
   61.4068  -78.1857  -13.2868 H   0  0  0  0  0  0  0  0  0  0  0  0
   60.0221  -76.1851  -17.1209 H   0  0  0  0  0  0  0  0  0  0  0  0
   58.8137  -74.0517  -17.3469 H   0  0  0  0  0  0  0  0  0  0  0  0
   57.2268  -73.3441  -15.6029 H   0  0  0  0  0  0  0  0  0  0  0  0
   56.8474  -74.7696  -13.6312 H   0  0  0  0  0  0  0  0  0  0  0  0
  1  2  1  0  0  0  0
  2  3  2  0  0  0  0
  3  4  1  0  0  0  0
  4  5  2  0  0  0  0
  5  6  1  0  0  0  0
  6  7  2  0  0  0  0
  2  7  1  0  0  0  0
  6  8  1  0  0  0  0
  8  9  1  0  0  0  0
  4 10  1  0  0  0  0
 10 11  1  0  0  0  0
 11 12  2  0  0  0  0
 11 13  1  0  0  0  0
 13 14  1  0  0  0  0
 14 15  2  0  0  0  0
 14 16  2  0  0  0  0
 14 17  1  0  0  0  0
 17 18  2  0  0  0  0
 18 19  1  0  0  0  0
 19 20  2  0  0  0  0
 20 21  1  0  0  0  0
 21 22  2  0  0  0  0
 17 22  1  0  0  0  0
 22 23  1  0  0  0  0
  1 24  1  0  0  0  0
  1 25  1  0  0  0  0
  1 26  1  0  0  0  0
  9 27  1  0  0  0  0
  9 28  1  0  0  0  0
  9 29  1  0  0  0  0
 10 30  1  0  0  0  0
 13 31  1  0  0  0  0
 18 32  1  0  0  0  0
 19 33  1  0  0  0  0
 20 34  1  0  0  0  0
 21 35  1  0  0  0  0
M  END
> <Gold.Version>
2021.2.0

> <Gold.Id.Protein>
5K6Q|5K6Q_protein|mol2

> <Gold.PLP.Fitness>
28.6780

> <Gold.PLP.PLP>
-21.3424

> <Gold.PLP.part.hbond>
-3.0264

> <Gold.PLP.part.metal>
0.0000

> <Gold.PLP.part.buried>
-5.4885

> <Gold.PLP.part.nonpolar>
-13.6359

> <Gold.PLP.part.repulsive>
0.2322

> <Gold.PLP.ligand.clash>
0.0000

> <Gold.PLP.ligand.torsion>
1.8599

> <Gold.PLP.Chemscore.Hbond>
2.5853

> <Gold.PLP.Chemscore.CHOScore>
0.0000

> <Gold.PLP.Chemscore.Metal>
0.0000

> <Gold.Chemscore.Hbonds>
donor molecule, donor type, donor heavy atom, donor atom, acceptor molecule, acceptor atom, score
      L1  H    10    30       P1  2230  0.96
      L1  H    13    31       P1  2230  0.73
      P1  H  4717  8548       L1     8  0.90

> <Gold.PLP.Chemscore.Internal.Correction>
3.2994

> <Gold.Protein.RotatedTorsions>
[ 5877 1703 1702 1700 ] final   13.31 input   60.01 | X-H torsion
[ 6057 1881 1880 1877 ] final  104.22 input   60.00 | X-H torsion
[ 7193 2255 2254 2251 ] final -101.68 input   60.00 | X-H torsion
[ 7182 2269 2268 2267 ] final   71.30 input   59.99 | X-H torsion
[ 6931 4361 4360 4357 ] final  -33.99 input   60.01 | X-H torsion
[ 8180 4471 4470 4468 ] final -126.30 input   60.00 | X-H torsion
[ 8184 4473 4472 4470 ] final  141.42 input   60.00 | X-H torsion
[ 8203 4505 4504 4503 ] final -125.35 input   60.00 | X-H torsion
[ 8212 4507 4506 4504 ] final -174.44 input   60.00 | X-H torsion
[ 8221 4509 4508 4506 ] final -170.39 input   60.00 | X-H torsion

> <Gold.Protein.ActiveResidues>
 TYR305  THR331  LEU332  MET333  LEU349  GLY350  MET351  HIS352  GLY353  ASN358 
 VAL372  ARG373  PHE374  ASP375  ASP376  ARG377  VAL378  THR379  GLY380  LYS381 
 LEU382  PHE385  ASN404  GLY508  GLY509  TRP574  ILE651  PRO652  SER653  GLY654 
 GLY655  FAD702  HOH839  HOH865  HOH881  HOH913  HOH945  HOH958  HOH960  HOH966 
 HOH968 

> <Gold.Protein.RotatedAtoms>
   61.1697  -73.1978   -3.3972 H   0  0  0  0  0  0  0  0  0  0  0  0  # atno 5877 bound_to 1703
   62.4454  -67.6016   -5.7428 H   0  0  0  0  0  0  0  0  0  0  0  0  # atno 6057 bound_to 1881
   68.9231  -80.8536  -11.2398 H   0  0  0  0  0  0  0  0  0  0  0  0  # atno 6931 bound_to 4361
   63.6230  -90.0724   -1.6542 H   0  0  0  0  0  0  0  0  0  0  0  0  # atno 7182 bound_to 2269
   62.1854  -89.5814   -0.9912 H   0  0  0  0  0  0  0  0  0  0  0  0  # atno 7183 bound_to 2269
   62.1897  -90.5553   -2.3324 H   0  0  0  0  0  0  0  0  0  0  0  0  # atno 7184 bound_to 2269
   60.9648  -79.3810   -5.9502 H   0  0  0  0  0  0  0  0  0  0  0  0  # atno 7193 bound_to 2255
   53.1595  -70.0883   -8.5772 H   0  0  0  0  0  0  0  0  0  0  0  0  # atno 8180 bound_to 4471
   50.6854  -67.2390   -7.7484 H   0  0  0  0  0  0  0  0  0  0  0  0  # atno 8184 bound_to 4473
   63.5142  -72.3054  -11.9228 H   0  0  0  0  0  0  0  0  0  0  0  0  # atno 8203 bound_to 4505
   62.2766  -69.2351  -10.7155 H   0  0  0  0  0  0  0  0  0  0  0  0  # atno 8212 bound_to 4507
   62.6545  -71.5217   -6.9221 H   0  0  0  0  0  0  0  0  0  0  0  0  # atno 8221 bound_to 4509
   59.5779  -73.1969   -3.7353 LP  0  0  0  0  0  0  0  0  0  0  0  0  # atno 9612 bound_to 1703
   60.2769  -74.5224   -3.0864 LP  0  0  0  0  0  0  0  0  0  0  0  0  # atno 9613 bound_to 1703
   62.6197  -66.8889   -4.2903 LP  0  0  0  0  0  0  0  0  0  0  0  0  # atno 9616 bound_to 1881
   61.3428  -67.8660   -4.5756 LP  0  0  0  0  0  0  0  0  0  0  0  0  # atno 9617 bound_to 1881
   60.6837  -80.8950   -5.4241 LP  0  0  0  0  0  0  0  0  0  0  0  0  # atno 9661 bound_to 2255
   62.2116  -80.4018   -5.7225 LP  0  0  0  0  0  0  0  0  0  0  0  0  # atno 9662 bound_to 2255
   68.7741  -81.3433  -12.7845 LP  0  0  0  0  0  0  0  0  0  0  0  0  # atno 9687 bound_to 4361
   70.2350  -81.3654  -12.0554 LP  0  0  0  0  0  0  0  0  0  0  0  0  # atno 9688 bound_to 4361
   52.1381  -69.3499   -7.5479 LP  0  0  0  0  0  0  0  0  0  0  0  0  # atno 9695 bound_to 4471
   53.5955  -69.8687   -7.0249 LP  0  0  0  0  0  0  0  0  0  0  0  0  # atno 9696 bound_to 4471
   51.3458  -68.6446   -8.2344 LP  0  0  0  0  0  0  0  0  0  0  0  0  # atno 9697 bound_to 4473
   51.1325  -67.4271   -9.3016 LP  0  0  0  0  0  0  0  0  0  0  0  0  # atno 9698 bound_to 4473
   64.5484  -73.3885  -11.2862 LP  0  0  0  0  0  0  0  0  0  0  0  0  # atno 9706 bound_to 4505
   65.1174  -72.0413  -12.0126 LP  0  0  0  0  0  0  0  0  0  0  0  0  # atno 9707 bound_to 4505
   63.1787  -70.0260  -11.8149 LP  0  0  0  0  0  0  0  0  0  0  0  0  # atno 9708 bound_to 4507
   63.8954  -69.2747  -10.5545 LP  0  0  0  0  0  0  0  0  0  0  0  0  # atno 9709 bound_to 4507
   63.9638  -71.8806   -7.8193 LP  0  0  0  0  0  0  0  0  0  0  0  0  # atno 9710 bound_to 4509
   62.5069  -72.5071   -8.2087 LP  0  0  0  0  0  0  0  0  0  0  0  0  # atno 9711 bound_to 4509

$$$$
