C12H12ClN5O4S|Chlorsulfuron|mol|1|dock14
  -GOLD-   2292221533D 1   1.00000     0.00000
 
 35 36  0  0  0  0  0  0  0  0  1 V2000
   66.4715  -73.3743  -14.4677 C   0  0  0  0  0  0  0  0  0  0  0  0
   65.3688  -74.2344  -15.0297 C   0  0  0  0  0  0  0  0  0  0  0  0
   64.5186  -74.8324  -14.2141 N   0  0  0  0  0  0  0  0  0  0  0  0
   63.5445  -75.5920  -14.7073 C   0  0  0  0  0  0  0  0  0  0  0  0
   63.4276  -75.7485  -16.0207 N   0  0  0  0  0  0  0  0  0  0  0  0
   64.2834  -75.1462  -16.8366 C   0  0  0  0  0  0  0  0  0  0  0  0
   65.2511  -74.3843  -16.3378 N   0  0  0  0  0  0  0  0  0  0  0  0
   64.1677  -75.3038  -18.1755 O   0  0  0  0  0  0  0  0  0  0  0  0
   63.9013  -74.0107  -18.7221 C   0  0  0  0  0  0  0  0  0  0  0  0
   62.6535  -76.2193  -13.8519 N   0  0  0  0  0  0  0  0  0  0  0  0
   61.3266  -76.1049  -14.0587 C   0  0  0  0  0  0  0  0  0  0  0  0
   60.9117  -75.4511  -14.9959 O   0  0  0  0  0  0  0  0  0  0  0  0
   60.4597  -76.7151  -13.2265 N   0  0  0  0  0  0  0  0  0  0  0  0
   58.8312  -76.4727  -13.4042 S   0  0  0  0  0  0  0  0  0  0  0  0
   58.2329  -76.9887  -12.2231 O   0  0  0  0  0  0  0  0  0  0  0  0
   58.6890  -75.1431  -13.8849 O   0  0  0  0  0  0  0  0  0  0  0  0
   58.2831  -77.5164  -14.7137 C   0  0  0  0  0  0  0  0  0  0  0  0
   58.2466  -77.0379  -16.0096 C   0  0  0  0  0  0  0  0  0  0  0  0
   57.8164  -77.8566  -17.0373 C   0  0  0  0  0  0  0  0  0  0  0  0
   57.4221  -79.1540  -16.7692 C   0  0  0  0  0  0  0  0  0  0  0  0
   57.4578  -79.6337  -15.4732 C   0  0  0  0  0  0  0  0  0  0  0  0
   57.8943  -78.8170  -14.4455 C   0  0  0  0  0  0  0  0  0  0  0  0
   57.9398  -79.4188  -12.8178 Cl  0  0  0  0  0  0  0  0  0  0  0  0
   67.3551  -73.9870  -14.2895 H   0  0  0  0  0  0  0  0  0  0  0  0
   66.7143  -72.5845  -15.1786 H   0  0  0  0  0  0  0  0  0  0  0  0
   66.1424  -72.9295  -13.5286 H   0  0  0  0  0  0  0  0  0  0  0  0
   63.7997  -74.0877  -19.8047 H   0  0  0  0  0  0  0  0  0  0  0  0
   62.9767  -73.6200  -18.2972 H   0  0  0  0  0  0  0  0  0  0  0  0
   64.7244  -73.3379  -18.4814 H   0  0  0  0  0  0  0  0  0  0  0  0
   62.9846  -76.7410  -13.1041 H   0  0  0  0  0  0  0  0  0  0  0  0
   60.7897  -77.2964  -12.5236 H   0  0  0  0  0  0  0  0  0  0  0  0
   58.5538  -76.0240  -16.2197 H   0  0  0  0  0  0  0  0  0  0  0  0
   57.7880  -77.4823  -18.0500 H   0  0  0  0  0  0  0  0  0  0  0  0
   57.0859  -79.7930  -17.5724 H   0  0  0  0  0  0  0  0  0  0  0  0
   57.1489  -80.6471  -15.2637 H   0  0  0  0  0  0  0  0  0  0  0  0
  1  2  1  0  0  0  0
  2  3  2  0  0  0  0
  3  4  1  0  0  0  0
  4  5  2  0  0  0  0
  5  6  1  0  0  0  0
  6  7  2  0  0  0  0
  2  7  1  0  0  0  0
  6  8  1  0  0  0  0
  8  9  1  0  0  0  0
  4 10  1  0  0  0  0
 10 11  1  0  0  0  0
 11 12  2  0  0  0  0
 11 13  1  0  0  0  0
 13 14  1  0  0  0  0
 14 15  2  0  0  0  0
 14 16  2  0  0  0  0
 14 17  1  0  0  0  0
 17 18  2  0  0  0  0
 18 19  1  0  0  0  0
 19 20  2  0  0  0  0
 20 21  1  0  0  0  0
 21 22  2  0  0  0  0
 17 22  1  0  0  0  0
 22 23  1  0  0  0  0
  1 24  1  0  0  0  0
  1 25  1  0  0  0  0
  1 26  1  0  0  0  0
  9 27  1  0  0  0  0
  9 28  1  0  0  0  0
  9 29  1  0  0  0  0
 10 30  1  0  0  0  0
 13 31  1  0  0  0  0
 18 32  1  0  0  0  0
 19 33  1  0  0  0  0
 20 34  1  0  0  0  0
 21 35  1  0  0  0  0
M  END
> <Gold.Version>
2021.2.0

> <Gold.Id.Protein>
5K6Q|5K6Q_protein|mol2

> <Gold.PLP.Fitness>
26.2259

> <Gold.PLP.PLP>
-18.6595

> <Gold.PLP.part.hbond>
-5.0000

> <Gold.PLP.part.metal>
0.0000

> <Gold.PLP.part.buried>
-3.0182

> <Gold.PLP.part.nonpolar>
-12.3764

> <Gold.PLP.part.repulsive>
0.8731

> <Gold.PLP.ligand.clash>
0.0000

> <Gold.PLP.ligand.torsion>
1.9117

> <Gold.PLP.Chemscore.Hbond>
2.7040

> <Gold.PLP.Chemscore.CHOScore>
0.0000

> <Gold.PLP.Chemscore.Metal>
0.0000

> <Gold.Chemscore.Hbonds>
donor molecule, donor type, donor heavy atom, donor atom, acceptor molecule, acceptor atom, score
      L1  H    10    30       P1  2230  0.93
      L1  H    13    31       P1  2230  0.91
      P1  H  2203  7120       L1    16  0.86

> <Gold.PLP.Chemscore.Internal.Correction>
3.2778

> <Gold.Protein.RotatedTorsions>
[ 5877 1703 1702 1700 ] final  -57.64 input   60.01 | X-H torsion
[ 6057 1881 1880 1877 ] final  -68.73 input   60.00 | X-H torsion
[ 7193 2255 2254 2251 ] final   64.45 input   60.00 | X-H torsion
[ 7182 2269 2268 2267 ] final -148.05 input   59.99 | X-H torsion
[ 6931 4361 4360 4357 ] final -162.77 input   60.01 | X-H torsion
[ 8180 4471 4470 4468 ] final  119.95 input   60.00 | X-H torsion
[ 8184 4473 4472 4470 ] final -165.12 input   60.00 | X-H torsion
[ 8203 4505 4504 4503 ] final   67.96 input   60.00 | X-H torsion
[ 8212 4507 4506 4504 ] final -109.70 input   60.00 | X-H torsion
[ 8221 4509 4508 4506 ] final  146.01 input   60.00 | X-H torsion

> <Gold.Protein.ActiveResidues>
 TYR305  THR331  LEU332  MET333  LEU349  GLY350  MET351  HIS352  GLY353  ASN358 
 VAL372  ARG373  PHE374  ASP375  ASP376  ARG377  VAL378  THR379  GLY380  LYS381 
 LEU382  PHE385  ASN404  GLY508  GLY509  TRP574  ILE651  PRO652  SER653  GLY654 
 GLY655  FAD702  HOH839  HOH865  HOH881  HOH913  HOH945  HOH958  HOH960  HOH966 
 HOH968 

> <Gold.Protein.RotatedAtoms>
   60.2340  -72.7757   -3.7540 H   0  0  0  0  0  0  0  0  0  0  0  0  # atno 5877 bound_to 1703
   61.9219  -67.2382   -3.9858 H   0  0  0  0  0  0  0  0  0  0  0  0  # atno 6057 bound_to 1881
   68.8986  -81.3878  -12.8415 H   0  0  0  0  0  0  0  0  0  0  0  0  # atno 6931 bound_to 4361
   61.9245  -89.7109   -1.1722 H   0  0  0  0  0  0  0  0  0  0  0  0  # atno 7182 bound_to 2269
   62.5133  -90.6242   -2.4239 H   0  0  0  0  0  0  0  0  0  0  0  0  # atno 7183 bound_to 2269
   63.5607  -89.8738   -1.3813 H   0  0  0  0  0  0  0  0  0  0  0  0  # atno 7184 bound_to 2269
   61.8080  -80.9735   -5.4943 H   0  0  0  0  0  0  0  0  0  0  0  0  # atno 7193 bound_to 2255
   52.1225  -69.3673   -7.6480 H   0  0  0  0  0  0  0  0  0  0  0  0  # atno 8180 bound_to 4471
   50.7367  -66.8925   -8.5142 H   0  0  0  0  0  0  0  0  0  0  0  0  # atno 8184 bound_to 4473
   65.1696  -73.0191  -11.4654 H   0  0  0  0  0  0  0  0  0  0  0  0  # atno 8203 bound_to 4505
   63.1288  -69.0047  -10.2404 H   0  0  0  0  0  0  0  0  0  0  0  0  # atno 8212 bound_to 4507
   63.3370  -71.3970   -6.9687 H   0  0  0  0  0  0  0  0  0  0  0  0  # atno 8221 bound_to 4509
   59.6031  -74.2184   -3.3434 LP  0  0  0  0  0  0  0  0  0  0  0  0  # atno 9612 bound_to 1703
   61.1940  -73.9260   -3.1190 LP  0  0  0  0  0  0  0  0  0  0  0  0  # atno 9613 bound_to 1703
   61.5783  -68.0294   -5.3658 LP  0  0  0  0  0  0  0  0  0  0  0  0  # atno 9616 bound_to 1881
   62.9114  -67.0913   -5.2693 LP  0  0  0  0  0  0  0  0  0  0  0  0  # atno 9617 bound_to 1881
   61.6976  -79.4309   -6.0005 LP  0  0  0  0  0  0  0  0  0  0  0  0  # atno 9661 bound_to 2255
   60.3487  -80.2621   -5.6053 LP  0  0  0  0  0  0  0  0  0  0  0  0  # atno 9662 bound_to 2255
   70.2371  -81.3197  -11.9185 LP  0  0  0  0  0  0  0  0  0  0  0  0  # atno 9687 bound_to 4361
   68.7966  -80.8510  -11.3086 LP  0  0  0  0  0  0  0  0  0  0  0  0  # atno 9688 bound_to 4361
   53.5274  -69.8214   -6.9639 LP  0  0  0  0  0  0  0  0  0  0  0  0  # atno 9695 bound_to 4471
   53.2505  -70.1234   -8.5446 LP  0  0  0  0  0  0  0  0  0  0  0  0  # atno 9696 bound_to 4471
   51.0178  -68.2018   -7.5897 LP  0  0  0  0  0  0  0  0  0  0  0  0  # atno 9697 bound_to 4473
   51.4089  -68.2189   -9.1751 LP  0  0  0  0  0  0  0  0  0  0  0  0  # atno 9698 bound_to 4473
   64.4523  -71.7545  -12.1964 LP  0  0  0  0  0  0  0  0  0  0  0  0  # atno 9706 bound_to 4505
   63.5465  -72.9566  -11.5630 LP  0  0  0  0  0  0  0  0  0  0  0  0  # atno 9707 bound_to 4505
   62.2939  -69.7078  -11.4473 LP  0  0  0  0  0  0  0  0  0  0  0  0  # atno 9708 bound_to 4507
   63.9220  -69.8250  -11.4005 LP  0  0  0  0  0  0  0  0  0  0  0  0  # atno 9709 bound_to 4507
   63.6514  -72.2979   -8.2869 LP  0  0  0  0  0  0  0  0  0  0  0  0  # atno 9710 bound_to 4509
   62.1320  -72.2154   -7.6942 LP  0  0  0  0  0  0  0  0  0  0  0  0  # atno 9711 bound_to 4509

$$$$
