C12H12ClN5O4S|Chlorsulfuron|mol|1|dock2
  -GOLD-   2292221533D 1   1.00000     0.00000
 
 35 36  0  0  0  0  0  0  0  0  1 V2000
   66.8781  -73.6891  -17.7385 C   0  0  0  0  0  0  0  0  0  0  0  0
   66.7261  -74.0859  -16.2926 C   0  0  0  0  0  0  0  0  0  0  0  0
   65.5319  -74.0727  -15.7275 N   0  0  0  0  0  0  0  0  0  0  0  0
   65.3948  -74.4225  -14.4515 C   0  0  0  0  0  0  0  0  0  0  0  0
   66.4599  -74.7850  -13.7463 N   0  0  0  0  0  0  0  0  0  0  0  0
   67.6576  -74.7970  -14.3175 C   0  0  0  0  0  0  0  0  0  0  0  0
   67.7872  -74.4517  -15.5941 N   0  0  0  0  0  0  0  0  0  0  0  0
   68.7454  -75.1653  -13.6019 O   0  0  0  0  0  0  0  0  0  0  0  0
   69.8824  -74.6025  -14.2595 C   0  0  0  0  0  0  0  0  0  0  0  0
   64.1427  -74.4081  -13.8590 N   0  0  0  0  0  0  0  0  0  0  0  0
   63.0747  -74.8845  -14.5289 C   0  0  0  0  0  0  0  0  0  0  0  0
   63.2101  -75.3268  -15.6532 O   0  0  0  0  0  0  0  0  0  0  0  0
   61.8564  -74.8705  -13.9526 N   0  0  0  0  0  0  0  0  0  0  0  0
   60.5249  -75.3378  -14.8193 S   0  0  0  0  0  0  0  0  0  0  0  0
   59.4025  -74.9887  -14.0210 O   0  0  0  0  0  0  0  0  0  0  0  0
   60.7566  -74.8973  -16.1503 O   0  0  0  0  0  0  0  0  0  0  0  0
   60.5334  -77.0984  -14.8895 C   0  0  0  0  0  0  0  0  0  0  0  0
   61.1768  -77.7456  -15.9272 C   0  0  0  0  0  0  0  0  0  0  0  0
   61.1834  -79.1270  -15.9824 C   0  0  0  0  0  0  0  0  0  0  0  0
   60.5462  -79.8616  -15.0002 C   0  0  0  0  0  0  0  0  0  0  0  0
   59.9019  -79.2154  -13.9619 C   0  0  0  0  0  0  0  0  0  0  0  0
   59.9005  -77.8333  -13.9025 C   0  0  0  0  0  0  0  0  0  0  0  0
   59.0920  -77.0210  -12.5986 Cl  0  0  0  0  0  0  0  0  0  0  0  0
   67.0596  -72.6163  -17.8038 H   0  0  0  0  0  0  0  0  0  0  0  0
   67.7188  -74.2272  -18.1765 H   0  0  0  0  0  0  0  0  0  0  0  0
   65.9657  -73.9368  -18.2811 H   0  0  0  0  0  0  0  0  0  0  0  0
   70.7876  -74.8738  -13.7161 H   0  0  0  0  0  0  0  0  0  0  0  0
   69.9406  -74.9873  -15.2776 H   0  0  0  0  0  0  0  0  0  0  0  0
   69.7863  -73.5171  -14.2863 H   0  0  0  0  0  0  0  0  0  0  0  0
   64.0345  -74.0551  -12.9620 H   0  0  0  0  0  0  0  0  0  0  0  0
   61.7596  -74.5867  -13.0301 H   0  0  0  0  0  0  0  0  0  0  0  0
   61.6743  -77.1721  -16.6954 H   0  0  0  0  0  0  0  0  0  0  0  0
   61.6864  -79.6324  -16.7936 H   0  0  0  0  0  0  0  0  0  0  0  0
   60.5515  -80.9407  -15.0440 H   0  0  0  0  0  0  0  0  0  0  0  0
   59.4034  -79.7894  -13.1948 H   0  0  0  0  0  0  0  0  0  0  0  0
  1  2  1  0  0  0  0
  2  3  2  0  0  0  0
  3  4  1  0  0  0  0
  4  5  2  0  0  0  0
  5  6  1  0  0  0  0
  6  7  2  0  0  0  0
  2  7  1  0  0  0  0
  6  8  1  0  0  0  0
  8  9  1  0  0  0  0
  4 10  1  0  0  0  0
 10 11  1  0  0  0  0
 11 12  2  0  0  0  0
 11 13  1  0  0  0  0
 13 14  1  0  0  0  0
 14 15  2  0  0  0  0
 14 16  2  0  0  0  0
 14 17  1  0  0  0  0
 17 18  2  0  0  0  0
 18 19  1  0  0  0  0
 19 20  2  0  0  0  0
 20 21  1  0  0  0  0
 21 22  2  0  0  0  0
 17 22  1  0  0  0  0
 22 23  1  0  0  0  0
  1 24  1  0  0  0  0
  1 25  1  0  0  0  0
  1 26  1  0  0  0  0
  9 27  1  0  0  0  0
  9 28  1  0  0  0  0
  9 29  1  0  0  0  0
 10 30  1  0  0  0  0
 13 31  1  0  0  0  0
 18 32  1  0  0  0  0
 19 33  1  0  0  0  0
 20 34  1  0  0  0  0
 21 35  1  0  0  0  0
M  END
> <Gold.Version>
2021.2.0

> <Gold.Id.Protein>
5K6Q|5K6Q_protein|mol2

> <Gold.PLP.Fitness>
32.4817

> <Gold.PLP.PLP>
-23.8370

> <Gold.PLP.part.hbond>
-4.3325

> <Gold.PLP.part.metal>
0.0000

> <Gold.PLP.part.buried>
-4.0464

> <Gold.PLP.part.nonpolar>
-16.6691

> <Gold.PLP.part.repulsive>
0.6925

> <Gold.PLP.ligand.clash>
0.4483

> <Gold.PLP.ligand.torsion>
2.1229

> <Gold.PLP.Chemscore.Hbond>
3.3465

> <Gold.PLP.Chemscore.CHOScore>
0.0000

> <Gold.PLP.Chemscore.Metal>
0.0000

> <Gold.Chemscore.Hbonds>
donor molecule, donor type, donor heavy atom, donor atom, acceptor molecule, acceptor atom, score
      L1  H    10    30       P1  4505  0.37
      L1  H    13    31       P1  2222  0.98
      P1  H  2203  7120       L1    15  1.00
      P1  H  2239  7163       L1     8  1.00

> <Gold.PLP.Chemscore.Internal.Correction>
3.2994

> <Gold.Protein.RotatedTorsions>
[ 5877 1703 1702 1700 ] final  -16.70 input   60.01 | X-H torsion
[ 6057 1881 1880 1877 ] final  -37.92 input   60.00 | X-H torsion
[ 7193 2255 2254 2251 ] final  -27.43 input   60.00 | X-H torsion
[ 7182 2269 2268 2267 ] final   83.62 input   59.99 | X-H torsion
[ 6931 4361 4360 4357 ] final   72.96 input   60.01 | X-H torsion
[ 8180 4471 4470 4468 ] final  -78.36 input   60.00 | X-H torsion
[ 8184 4473 4472 4470 ] final   97.77 input   60.00 | X-H torsion
[ 8203 4505 4504 4503 ] final  -29.23 input   60.00 | X-H torsion
[ 8212 4507 4506 4504 ] final -134.41 input   60.00 | X-H torsion
[ 8221 4509 4508 4506 ] final  174.66 input   60.00 | X-H torsion

> <Gold.Protein.ActiveResidues>
 TYR305  THR331  LEU332  MET333  LEU349  GLY350  MET351  HIS352  GLY353  ASN358 
 VAL372  ARG373  PHE374  ASP375  ASP376  ARG377  VAL378  THR379  GLY380  LYS381 
 LEU382  PHE385  ASN404  GLY508  GLY509  TRP574  ILE651  PRO652  SER653  GLY654 
 GLY655  FAD702  HOH839  HOH865  HOH881  HOH913  HOH945  HOH958  HOH960  HOH966 
 HOH968 

> <Gold.Protein.RotatedAtoms>
   60.8583  -72.8766   -3.5843 H   0  0  0  0  0  0  0  0  0  0  0  0  # atno 5877 bound_to 1703
   62.3438  -66.9932   -4.0824 H   0  0  0  0  0  0  0  0  0  0  0  0  # atno 6057 bound_to 1881
   70.2235  -81.2978  -11.8530 H   0  0  0  0  0  0  0  0  0  0  0  0  # atno 6931 bound_to 4361
   63.6004  -89.9523   -1.4891 H   0  0  0  0  0  0  0  0  0  0  0  0  # atno 7182 bound_to 2269
   62.0199  -89.6521   -1.0901 H   0  0  0  0  0  0  0  0  0  0  0  0  # atno 7183 bound_to 2269
   62.3778  -90.6046   -2.3986 H   0  0  0  0  0  0  0  0  0  0  0  0  # atno 7184 bound_to 2269
   62.0419  -79.7226   -5.9312 H   0  0  0  0  0  0  0  0  0  0  0  0  # atno 7193 bound_to 2255
   53.7158  -70.2036   -8.0713 H   0  0  0  0  0  0  0  0  0  0  0  0  # atno 8180 bound_to 4471
   50.8720  -67.8672   -7.5134 H   0  0  0  0  0  0  0  0  0  0  0  0  # atno 8184 bound_to 4473
   64.8091  -71.8379  -12.1342 H   0  0  0  0  0  0  0  0  0  0  0  0  # atno 8203 bound_to 4505
   62.7373  -69.0231  -10.3236 H   0  0  0  0  0  0  0  0  0  0  0  0  # atno 8212 bound_to 4507
   62.8830  -71.4442   -6.8891 H   0  0  0  0  0  0  0  0  0  0  0  0  # atno 8221 bound_to 4509
   59.4210  -73.6393   -3.6009 LP  0  0  0  0  0  0  0  0  0  0  0  0  # atno 9612 bound_to 1703
   60.7474  -74.4034   -3.0324 LP  0  0  0  0  0  0  0  0  0  0  0  0  # atno 9613 bound_to 1703
   61.3636  -67.9903   -4.9150 LP  0  0  0  0  0  0  0  0  0  0  0  0  # atno 9616 bound_to 1881
   62.7013  -67.3771   -5.6229 LP  0  0  0  0  0  0  0  0  0  0  0  0  # atno 9617 bound_to 1881
   60.4283  -79.8362   -5.7540 LP  0  0  0  0  0  0  0  0  0  0  0  0  # atno 9661 bound_to 2255
   61.3823  -81.1166   -5.4117 LP  0  0  0  0  0  0  0  0  0  0  0  0  # atno 9662 bound_to 2255
   68.7404  -80.8548  -11.3506 LP  0  0  0  0  0  0  0  0  0  0  0  0  # atno 9687 bound_to 4361
   68.9592  -81.4065  -12.8719 LP  0  0  0  0  0  0  0  0  0  0  0  0  # atno 9688 bound_to 4361
   52.2242  -69.5846   -8.2720 LP  0  0  0  0  0  0  0  0  0  0  0  0  # atno 9695 bound_to 4471
   52.9492  -69.5179   -6.8103 LP  0  0  0  0  0  0  0  0  0  0  0  0  # atno 9696 bound_to 4471
   51.4449  -68.4787   -8.9083 LP  0  0  0  0  0  0  0  0  0  0  0  0  # atno 9697 bound_to 4473
   50.8454  -66.9604   -8.8643 LP  0  0  0  0  0  0  0  0  0  0  0  0  # atno 9698 bound_to 4473
   63.4507  -72.6429  -11.7406 LP  0  0  0  0  0  0  0  0  0  0  0  0  # atno 9706 bound_to 4505
   64.9111  -73.2576  -11.3453 LP  0  0  0  0  0  0  0  0  0  0  0  0  # atno 9707 bound_to 4505
   62.5605  -69.8891  -11.6899 LP  0  0  0  0  0  0  0  0  0  0  0  0  # atno 9708 bound_to 4507
   64.0497  -69.6252  -11.0741 LP  0  0  0  0  0  0  0  0  0  0  0  0  # atno 9709 bound_to 4507
   63.9110  -72.0305   -8.0061 LP  0  0  0  0  0  0  0  0  0  0  0  0  # atno 9710 bound_to 4509
   62.3297  -72.4353   -8.0552 LP  0  0  0  0  0  0  0  0  0  0  0  0  # atno 9711 bound_to 4509

$$$$
